@<TRIPOS>MOLECULE
ZINC00007489
   29    31     0     0     0
SMALL
USER_CHARGES

@<TRIPOS>ATOM
      1 C1          5.9692    3.4062   -0.0362 C.3       1 <0>         0.0268
      2 O1          5.4230    2.0857   -0.0380 O.3       1 <0>        -0.3147
      3 C2          4.0676    1.9783   -0.0261 C.ar      1 <0>         0.1222
      4 C3          3.2826    3.1280   -0.0125 C.ar      1 <0>        -0.1781
      5 C4          1.9079    3.0336    0.0001 C.ar      1 <0>        -0.0667
      6 C5          1.3000    1.7860   -0.0008 C.ar      1 <0>         0.0174
      7 C6          2.0852    0.6211   -0.0145 C.ar      1 <0>         0.0877
      8 C7          3.4784    0.7299   -0.0272 C.ar      1 <0>        -0.1058
      9 N1          1.2301   -0.4340   -0.0120 N.2       1 <0>        -0.4902
     10 C8          0.0021   -0.0041    0.0020 C.2       1 <0>         0.2769
     11 N2         -0.0164    1.3581    0.0095 N.pl3     1 <0>        -0.4467
     12 C9         -1.1555    2.1739    0.0196 C.ar      1 <0>         0.1243
     13 C10        -1.2691    3.1986    0.9496 C.ar      1 <0>        -0.1181
     14 C11        -2.3904    4.0050    0.9530 C.ar      1 <0>        -0.1002
     15 C12        -3.4047    3.7851    0.0392 C.ar      1 <0>        -0.1145
     16 C13        -3.2972    2.7615   -0.8843 C.ar      1 <0>        -0.0995
     17 C14        -2.1756    1.9556   -0.8967 C.ar      1 <0>        -0.1183
     18 H1          5.6251    3.9430   -0.9203 H         1 <0>         0.0559
     19 H2          5.6414    3.9337    0.8596 H         1 <0>         0.0559
     20 H3          7.0576    3.3493   -0.0465 H         1 <0>         0.1019
     21 H4          3.7539    4.0997   -0.0114 H         1 <0>         0.1384
     22 H5          1.3044    3.9292    0.0111 H         1 <0>         0.1269
     23 H6          4.0916   -0.1591   -0.0382 H         1 <0>         0.1405
     24 H7         -0.8745   -0.6349    0.0064 H         1 <0>         0.2172
     25 H8         -0.4794    3.3677    1.6667 H         1 <0>         0.1292
     26 H9         -2.4772    4.8053    1.6731 H         1 <0>         0.1336
     27 H10        -4.2824    4.4144    0.0465 H         1 <0>         0.1315
     28 H11        -4.0910    2.5922   -1.5968 H         1 <0>         0.1346
     29 H12        -2.0920    1.1567   -1.6187 H         1 <0>         0.1318
@<TRIPOS>BOND
     1    1    2 1
     2    1   18 1
     3    1   19 1
     4    1   20 1
     5    2    3 1
     6    3    8 ar
     7    3    4 ar
     8    4    5 ar
     9    4   21 1
    10    5    6 ar
    11    5   22 1
    12    6   11 1
    13    6    7 ar
    14    7    8 ar
    15    7    9 1
    16    8   23 1
    17    9   10 2
    18   10   11 1
    19   10   24 1
    20   11   12 1
    21   12   17 ar
    22   12   13 ar
    23   13   14 ar
    24   13   25 1
    25   14   15 ar
    26   14   26 1
    27   15   16 ar
    28   15   27 1
    29   16   17 ar
    30   16   28 1
    31   17   29 1
@<TRIPOS>MOLECULE
ZINC00008074
   39    41     0     0     0
SMALL
USER_CHARGES

@<TRIPOS>ATOM
      1 C1         -7.2569   -0.4226    0.0355 C.3       1 <0>         0.0255
      2 O1         -6.0409   -1.1731    0.0256 O.3       1 <0>        -0.3155
      3 C2         -4.8801   -0.4668    0.0234 C.ar      1 <0>         0.1329
      4 C3         -3.6629   -1.1346    0.0139 C.ar      1 <0>        -0.1467
      5 C4         -2.4831   -0.4205    0.0116 C.ar      1 <0>        -0.0673
      6 C5         -2.5135    0.9731    0.0194 C.ar      1 <0>        -0.0816
      7 C6         -3.7371    1.6406    0.0347 C.ar      1 <0>        -0.0677
      8 C7         -4.9136    0.9211    0.0311 C.ar      1 <0>        -0.2050
      9 C8         -1.2463    1.7441    0.0175 C.ar      1 <0>        -0.0900
     10 C9         -1.2723    3.1317    0.0315 C.ar      1 <0>        -0.0576
     11 C10        -0.0448    3.8147    0.0231 C.ar      1 <0>        -0.0844
     12 C11         0.0053    5.2196    0.0298 C.ar      1 <0>        -0.1754
     13 C12         1.2138    5.8519    0.0211 C.ar      1 <0>         0.1264
     14 C13         2.4078    5.1143    0.0056 C.ar      1 <0>         0.1382
     15 C14         2.3891    3.7500   -0.0012 C.ar      1 <0>        -0.1696
     16 C15         1.1607    3.0674    0.0074 C.ar      1 <0>         0.1363
     17 N1          1.1213    1.7305    0.0006 N.ar      1 <0>        -0.4673
     18 C16        -0.0126    1.0758    0.0080 C.ar      1 <0>         0.1363
     19 O2          3.5990    5.7680   -0.0032 O.3       1 <0>        -0.3013
     20 C17         4.7802    4.9639   -0.0194 C.3       1 <0>         0.0216
     21 O3          1.2623    7.2104    0.0281 O.3       1 <0>        -0.3017
     22 C18         0.0131    7.9041    0.0439 C.3       1 <0>         0.0227
     23 H1         -7.2917    0.2009    0.9289 H         1 <0>         0.0570
     24 H2         -7.3006    0.2101   -0.8511 H         1 <0>         0.0570
     25 H3         -8.1058   -1.1063    0.0362 H         1 <0>         0.1024
     26 H4         -3.6400   -2.2143    0.0078 H         1 <0>         0.1360
     27 H5         -1.5366   -0.9405    0.0042 H         1 <0>         0.1355
     28 H6         -3.7638    2.7203    0.0449 H         1 <0>         0.1276
     29 H7         -5.8620    1.4377    0.0382 H         1 <0>         0.1317
     30 H8         -2.2084    3.6703    0.0434 H         1 <0>         0.1396
     31 H9         -0.9084    5.7952    0.0413 H         1 <0>         0.1449
     32 H10         3.3161    3.1960   -0.0135 H         1 <0>         0.1511
     33 H11         0.0021   -0.0041    0.0020 H         1 <0>         0.1614
     34 H12         5.6588    5.6089   -0.0251 H         1 <0>         0.1055
     35 H13         4.8005    4.3301    0.8672 H         1 <0>         0.0600
     36 H14         4.7823    4.3392   -0.9127 H         1 <0>         0.0600
     37 H15        -0.5625    7.6362   -0.8420 H         1 <0>         0.0581
     38 H16        -0.5454    7.6264    0.9378 H         1 <0>         0.0581
     39 H17         0.1944    8.9789    0.0480 H         1 <0>         0.1051
@<TRIPOS>BOND
     1    1    2 1
     2    1   23 1
     3    1   24 1
     4    1   25 1
     5    2    3 1
     6    3    8 ar
     7    3    4 ar
     8    4    5 ar
     9    4   26 1
    10    5    6 ar
    11    5   27 1
    12    6    7 ar
    13    6    9 1
    14    7    8 ar
    15    7   28 1
    16    8   29 1
    17    9   18 ar
    18    9   10 ar
    19   10   11 ar
    20   10   30 1
    21   11   16 ar
    22   11   12 ar
    23   12   13 ar
    24   12   31 1
    25   13   14 ar
    26   13   21 1
    27   14   15 ar
    28   14   19 1
    29   15   16 ar
    30   15   32 1
    31   16   17 ar
    32   17   18 ar
    33   18   33 1
    34   19   20 1
    35   20   34 1
    36   20   35 1
    37   20   36 1
    38   21   22 1
    39   22   37 1
    40   22   38 1
    41   22   39 1
@<TRIPOS>MOLECULE
ZINC00008075
   32    34     0     0     0
SMALL
USER_CHARGES

@<TRIPOS>ATOM
      1 C1          5.9309   -2.0502   -0.0664 C.3       1 <0>         0.0226
      2 O1          4.7157   -2.8020   -0.0590 O.3       1 <0>        -0.3015
      3 C2          3.5536   -2.0966   -0.0438 C.ar      1 <0>         0.1263
      4 C3          3.5917   -0.7328   -0.0359 C.ar      1 <0>        -0.1745
      5 C4          2.3904   -0.0037   -0.0207 C.ar      1 <0>        -0.0850
      6 C5          2.3935    1.4016   -0.0127 C.ar      1 <0>        -0.0527
      7 C6          1.1701    2.0558    0.0019 C.ar      1 <0>        -0.0822
      8 C7         -0.0157    1.3049    0.0092 C.ar      1 <0>         0.1392
      9 N1          0.0021   -0.0041    0.0020 N.ar      1 <0>        -0.4679
     10 C8          1.1498   -0.6911   -0.0126 C.ar      1 <0>         0.1372
     11 C9          1.1459   -2.0962   -0.0207 C.ar      1 <0>        -0.1698
     12 C10         2.3275   -2.7785   -0.0360 C.ar      1 <0>         0.1391
     13 O2          2.3165   -4.1374   -0.0441 O.3       1 <0>        -0.3011
     14 C11         1.0381   -4.7759   -0.0360 C.3       1 <0>         0.0215
     15 C12         1.1158    3.5384    0.0103 C.2       1 <0>        -0.0774
     16 C13        -0.1054    4.2056    0.0255 C.2       1 <0>        -0.1526
     17 C14        -0.1142    5.5577    0.0328 C.2       1 <0>        -0.1656
     18 S1          1.6273    5.9475    0.0182 S.3       1 <0>         0.0532
     19 C15         2.2640    4.2800    0.0090 C.2       1 <0>        -0.1687
     20 H1          6.7805   -2.7329   -0.0784 H         1 <0>         0.1053
     21 H2          5.9610   -1.4170   -0.9531 H         1 <0>         0.0583
     22 H3          5.9781   -1.4271    0.8268 H         1 <0>         0.0582
     23 H4          4.5401   -0.2162   -0.0414 H         1 <0>         0.1453
     24 H5          3.3205    1.9558   -0.0182 H         1 <0>         0.1390
     25 H6         -0.9653    1.8193    0.0165 H         1 <0>         0.1605
     26 H7          0.2098   -2.6349   -0.0151 H         1 <0>         0.1512
     27 H8          0.4919   -4.4840    0.8610 H         1 <0>         0.0601
     28 H9          0.4752   -4.4731   -0.9189 H         1 <0>         0.0601
     29 H10         1.1722   -5.8576   -0.0438 H         1 <0>         0.1057
     30 H11        -1.0324    3.6516    0.0318 H         1 <0>         0.1396
     31 H12        -0.9593    6.2300    0.0444 H         1 <0>         0.1899
     32 H13         3.2904    3.9441    0.0024 H         1 <0>         0.1869
@<TRIPOS>BOND
     1    1    2 1
     2    1   20 1
     3    1   21 1
     4    1   22 1
     5    2    3 1
     6    3   12 ar
     7    3    4 ar
     8    4    5 ar
     9    4   23 1
    10    5   10 ar
    11    5    6 ar
    12    6    7 ar
    13    6   24 1
    14    7    8 ar
    15    7   15 1
    16    8    9 ar
    17    8   25 1
    18    9   10 ar
    19   10   11 ar
    20   11   12 ar
    21   11   26 1
    22   12   13 1
    23   13   14 1
    24   14   27 1
    25   14   28 1
    26   14   29 1
    27   15   19 2
    28   15   16 1
    29   16   17 2
    30   16   30 1
    31   17   18 1
    32   17   31 1
    33   18   19 1
    34   19   32 1
@<TRIPOS>MOLECULE
ZINC00008076
   28    30     0     0     0
SMALL
USER_CHARGES

@<TRIPOS>ATOM
      1 C1         -3.5876    1.8078    0.0284 C.3       1 <0>         0.0243
      2 O1         -2.3755    1.0509    0.0185 O.3       1 <0>        -0.3123
      3 C2         -1.2113    1.7510    0.0173 C.ar      1 <0>         0.1458
      4 C3         -1.2460    3.1493    0.0309 C.ar      1 <0>        -0.1877
      5 C4         -0.0956    3.8741    0.0239 C.ar      1 <0>        -0.0542
      6 C5          1.1461    3.2153    0.0085 C.ar      1 <0>        -0.1281
      7 C6          2.3514    3.9381   -0.0000 C.ar      1 <0>        -0.0388
      8 C7          3.5400    3.2232   -0.0157 C.ar      1 <0>        -0.0947
      9 C8          3.5033    1.8200   -0.0225 C.ar      1 <0>         0.1556
     10 N1          2.3703    1.1644   -0.0148 N.ar      1 <0>        -0.4750
     11 C9          1.1920    1.7981    0.0003 C.ar      1 <0>         0.1629
     12 C10        -0.0126    1.0758    0.0080 C.ar      1 <0>        -0.1421
     13 C11         4.8408    3.9366   -0.0248 C.2       1 <0>        -0.0759
     14 C12         6.0397    3.2302   -0.0400 C.2       1 <0>        -0.1533
     15 C13         7.2051    3.9158   -0.0478 C.2       1 <0>        -0.1652
     16 S1          6.6470    5.6109   -0.0337 S.3       1 <0>         0.0528
     17 C14         4.8889    5.3027   -0.0239 C.2       1 <0>        -0.1703
     18 H1         -3.6276    2.4412   -0.8578 H         1 <0>         0.0580
     19 H2         -4.4401    1.1286    0.0283 H         1 <0>         0.1041
     20 H3         -3.6196    2.4309    0.9221 H         1 <0>         0.0580
     21 H4         -2.1979    3.6594    0.0424 H         1 <0>         0.1369
     22 H5         -0.1357    4.9533    0.0297 H         1 <0>         0.1364
     23 H6          2.3521    5.0181    0.0051 H         1 <0>         0.1400
     24 H7          4.4317    1.2683   -0.0348 H         1 <0>         0.1617
     25 H8          0.0021   -0.0041    0.0020 H         1 <0>         0.1446
     26 H9          6.0393    2.1503   -0.0459 H         1 <0>         0.1396
     27 H10         8.2157    3.5349   -0.0596 H         1 <0>         0.1899
     28 H11         4.0743    6.0117   -0.0173 H         1 <0>         0.1869
@<TRIPOS>BOND
     1    1    2 1
     2    1   18 1
     3    1   19 1
     4    1   20 1
     5    2    3 1
     6    3   12 ar
     7    3    4 ar
     8    4    5 ar
     9    4   21 1
    10    5    6 ar
    11    5   22 1
    12    6   11 ar
    13    6    7 ar
    14    7    8 ar
    15    7   23 1
    16    8    9 ar
    17    8   13 1
    18    9   10 ar
    19    9   24 1
    20   10   11 ar
    21   11   12 ar
    22   12   25 1
    23   13   17 2
    24   13   14 1
    25   14   15 2
    26   14   26 1
    27   15   16 1
    28   15   27 1
    29   16   17 1
    30   17   28 1
@<TRIPOS>MOLECULE
ZINC00008077
   39    41     0     0     0
SMALL
USER_CHARGES

@<TRIPOS>ATOM
      1 C1          3.5524    2.1858   -0.0197 C.3       1 <0>         0.0242
      2 O1          2.3636    1.3928   -0.0126 O.3       1 <0>        -0.3078
      3 C2          1.1782    2.0579    0.0019 C.ar      1 <0>         0.1004
      4 C3          1.1626    3.4454    0.0085 C.ar      1 <0>        -0.1763
      5 C4         -0.0385    4.1235    0.0232 C.ar      1 <0>        -0.0767
      6 C5         -1.2385    3.4144    0.0313 C.ar      1 <0>        -0.0492
      7 C6         -1.2216    2.0206    0.0188 C.ar      1 <0>        -0.1080
      8 C7         -0.0162    1.3468    0.0094 C.ar      1 <0>         0.0754
      9 F1          0.0021   -0.0041    0.0020 F         1 <0>        -0.1290
     10 C8         -2.5312    4.1416    0.0470 C.ar      1 <0>        -0.0970
     11 C9         -3.7284    3.4393    0.0493 C.ar      1 <0>        -0.0504
     12 C10        -4.9248    4.1751    0.0690 C.ar      1 <0>        -0.0857
     13 C11        -6.1742    3.5308    0.0769 C.ar      1 <0>        -0.1743
     14 C12        -7.3173    4.2748    0.0894 C.ar      1 <0>         0.1269
     15 C13        -7.2589    5.6771    0.0953 C.ar      1 <0>         0.1411
     16 C14        -6.0602    6.3289    0.0879 C.ar      1 <0>        -0.1713
     17 C15        -4.8636    5.5922    0.0746 C.ar      1 <0>         0.1399
     18 N1         -3.6787    6.2126    0.0667 N.ar      1 <0>        -0.4670
     19 C16        -2.5527    5.5446    0.0538 C.ar      1 <0>         0.1396
     20 O2         -8.4121    6.3956    0.1082 O.3       1 <0>        -0.3007
     21 C17        -8.2894    7.8194    0.1132 C.3       1 <0>         0.0214
     22 O3         -8.5255    3.6518    0.0966 O.3       1 <0>        -0.3013
     23 C18        -8.5186    2.2228    0.0901 C.3       1 <0>         0.0222
     24 H1          3.5612    2.8193   -0.9066 H         1 <0>         0.0600
     25 H2          3.5778    2.8103    0.8732 H         1 <0>         0.0600
     26 H3          4.4248    1.5325   -0.0312 H         1 <0>         0.1055
     27 H4          2.0922    3.9951    0.0019 H         1 <0>         0.1437
     28 H5         -0.0491    5.2035    0.0280 H         1 <0>         0.1390
     29 H6         -2.1498    1.4685    0.0206 H         1 <0>         0.1450
     30 H7         -3.7396    2.3594    0.0402 H         1 <0>         0.1413
     31 H8         -6.2287    2.4522    0.0736 H         1 <0>         0.1461
     32 H9         -6.0312    7.4085    0.0918 H         1 <0>         0.1517
     33 H10        -1.6184    6.0862    0.0478 H         1 <0>         0.1620
     34 H11        -9.2821    8.2695    0.1235 H         1 <0>         0.1059
     35 H12        -7.7387    8.1335    0.9998 H         1 <0>         0.0603
     36 H13        -7.7539    8.1410   -0.7800 H         1 <0>         0.0603
     37 H14        -9.5445    1.8545    0.0969 H         1 <0>         0.1056
     38 H15        -8.0105    1.8661   -0.8058 H         1 <0>         0.0587
     39 H16        -7.9956    1.8579    0.9740 H         1 <0>         0.0587
@<TRIPOS>BOND
     1    1    2 1
     2    1   24 1
     3    1   25 1
     4    1   26 1
     5    2    3 1
     6    3    8 ar
     7    3    4 ar
     8    4    5 ar
     9    4   27 1
    10    5    6 ar
    11    5   28 1
    12    6    7 ar
    13    6   10 1
    14    7    8 ar
    15    7   29 1
    16    8    9 1
    17   10   19 ar
    18   10   11 ar
    19   11   12 ar
    20   11   30 1
    21   12   17 ar
    22   12   13 ar
    23   13   14 ar
    24   13   31 1
    25   14   15 ar
    26   14   22 1
    27   15   16 ar
    28   15   20 1
    29   16   17 ar
    30   16   32 1
    31   17   18 ar
    32   18   19 ar
    33   19   33 1
    34   20   21 1
    35   21   34 1
    36   21   35 1
    37   21   36 1
    38   22   23 1
    39   23   37 1
    40   23   38 1
    41   23   39 1
@<TRIPOS>MOLECULE
ZINC00008079
   36    38     0     0     0
SMALL
USER_CHARGES

@<TRIPOS>ATOM
      1 C1         -0.4563   -6.5113   -4.2384 C.3       1 <0>         0.0227
      2 O1          0.5305   -7.0644   -3.3652 O.3       1 <0>        -0.3019
      3 C2          1.0970   -6.2216   -2.4615 C.ar      1 <0>         0.1248
      4 C3          0.7113   -4.9135   -2.4241 C.ar      1 <0>        -0.1736
      5 C4          1.2971   -4.0421   -1.4897 C.ar      1 <0>        -0.0884
      6 C5          0.9233   -2.6895   -1.4246 C.ar      1 <0>        -0.0481
      7 C6          1.5445   -1.8860   -0.4762 C.ar      1 <0>        -0.0922
      8 C7          2.5173   -2.4425    0.3717 C.ar      1 <0>         0.1438
      9 N1          2.8469   -3.7068    0.2978 N.ar      1 <0>        -0.4714
     10 C8          2.2835   -4.5298   -0.5943 C.ar      1 <0>         0.1384
     11 C9          2.6574   -5.8822   -0.6590 C.ar      1 <0>        -0.1710
     12 C10         2.0720   -6.7059   -1.5764 C.ar      1 <0>         0.1391
     13 O2          2.4382   -8.0131   -1.6332 O.3       1 <0>        -0.3012
     14 C11         3.4356   -8.4482   -0.7069 C.3       1 <0>         0.0217
     15 C12         1.1894   -0.4560   -0.3641 C.2       1 <0>        -0.1032
     16 C13         0.0021   -0.0041    0.0020 C.2       1 <0>        -0.1424
     17 C14        -0.0184    1.5069    0.0103 C.3       1 <0>        -0.1011
     18 C15         1.4705    1.9225   -0.0017 C.3       1 <0>        -0.1249
     19 C16         2.1337    0.6876   -0.6534 C.3       1 <0>        -0.0877
     20 H1         -0.0122   -5.7076   -4.8258 H         1 <0>         0.0581
     21 H2         -0.8262   -7.2885   -4.9072 H         1 <0>         0.1052
     22 H3         -1.2831   -6.1160   -3.6483 H         1 <0>         0.0580
     23 H4         -0.0400   -4.5493   -3.1091 H         1 <0>         0.1449
     24 H5          0.1754   -2.2864   -2.0913 H         1 <0>         0.1384
     25 H6          3.0008   -1.8133    1.1043 H         1 <0>         0.1598
     26 H7          3.4068   -6.2693    0.0155 H         1 <0>         0.1508
     27 H8          4.3521   -7.8802   -0.8664 H         1 <0>         0.0600
     28 H9          3.0810   -8.2873    0.3111 H         1 <0>         0.0600
     29 H10         3.6346   -9.5091   -0.8590 H         1 <0>         0.1056
     30 H11        -0.8394   -0.6300    0.2597 H         1 <0>         0.1257
     31 H12        -0.5249    1.8843   -0.8780 H         1 <0>         0.0785
     32 H13        -0.5078    1.8747    0.9122 H         1 <0>         0.0740
     33 H14         1.6222    2.8140   -0.6102 H         1 <0>         0.0749
     34 H15         1.8413    2.0757    1.0118 H         1 <0>         0.0730
     35 H16         3.1081    0.4982   -0.2029 H         1 <0>         0.0727
     36 H17         2.2340    0.8341   -1.7288 H         1 <0>         0.0770
@<TRIPOS>BOND
     1    1    2 1
     2    1   20 1
     3    1   21 1
     4    1   22 1
     5    2    3 1
     6    3   12 ar
     7    3    4 ar
     8    4    5 ar
     9    4   23 1
    10    5   10 ar
    11    5    6 ar
    12    6    7 ar
    13    6   24 1
    14    7    8 ar
    15    7   15 1
    16    8    9 ar
    17    8   25 1
    18    9   10 ar
    19   10   11 ar
    20   11   12 ar
    21   11   26 1
    22   12   13 1
    23   13   14 1
    24   14   27 1
    25   14   28 1
    26   14   29 1
    27   15   19 1
    28   15   16 2
    29   16   17 1
    30   16   30 1
    31   17   18 1
    32   17   31 1
    33   17   32 1
    34   18   19 1
    35   18   33 1
    36   18   34 1
    37   19   35 1
    38   19   36 1
@<TRIPOS>MOLECULE
ZINC00017525
   26    28     0     0     0
SMALL
USER_CHARGES

@<TRIPOS>ATOM
      1 C1         -3.4049    3.7848    0.0395 C.ar      1 <0>        -0.1134
      2 C2         -3.2972    2.7615   -0.8843 C.ar      1 <0>        -0.0997
      3 C3         -2.1756    1.9556   -0.8967 C.ar      1 <0>        -0.1175
      4 C4         -1.1555    2.1739    0.0196 C.ar      1 <0>         0.1220
      5 C5         -1.2691    3.1986    0.9496 C.ar      1 <0>        -0.1171
      6 C6         -2.3904    4.0050    0.9530 C.ar      1 <0>        -0.0999
      7 N1         -0.0164    1.3581    0.0095 N.pl3     1 <0>        -0.4469
      8 C7          0.0021   -0.0041    0.0020 C.2       1 <0>         0.2737
      9 N2          1.2301   -0.4342   -0.0120 N.2       1 <0>        -0.4879
     10 C8          2.0853    0.6208   -0.0145 C.ar      1 <0>         0.0636
     11 C9          1.3001    1.7861   -0.0008 C.ar      1 <0>         0.0414
     12 C10         1.9078    3.0332    0.0006 C.ar      1 <0>        -0.0903
     13 C11         3.2830    3.1275   -0.0120 C.ar      1 <0>        -0.1218
     14 C12         4.0676    1.9781   -0.0261 C.ar      1 <0>         0.1008
     15 C13         3.4782    0.7294   -0.0272 C.ar      1 <0>        -0.0913
     16 O1          5.4231    2.0854   -0.0385 O.3       1 <0>        -0.4941
     17 H1         -4.2829    4.4137    0.0472 H         1 <0>         0.1319
     18 H2         -4.0909    2.5924   -1.5970 H         1 <0>         0.1349
     19 H3         -2.0920    1.1567   -1.6187 H         1 <0>         0.1318
     20 H4         -0.4793    3.3680    1.6665 H         1 <0>         0.1298
     21 H5         -2.4774    4.8050    1.6733 H         1 <0>         0.1342
     22 H6         -0.8746   -0.6349    0.0070 H         1 <0>         0.2176
     23 H7          1.3044    3.9288    0.0119 H         1 <0>         0.1283
     24 H8          3.7544    4.0992   -0.0106 H         1 <0>         0.1392
     25 H9          4.0913   -0.1596   -0.0382 H         1 <0>         0.1388
     26 H10         5.8067    2.1212   -0.9254 H         1 <0>         0.3917
@<TRIPOS>BOND
     1    1    6 ar
     2    1    2 ar
     3    1   17 1
     4    2    3 ar
     5    2   18 1
     6    3    4 ar
     7    3   19 1
     8    4    5 ar
     9    4    7 1
    10    5    6 ar
    11    5   20 1
    12    6   21 1
    13    7   11 1
    14    7    8 1
    15    8    9 2
    16    8   22 1
    17    9   10 1
    18   10   15 ar
    19   10   11 ar
    20   11   12 ar
    21   12   13 ar
    22   12   23 1
    23   13   14 ar
    24   13   24 1
    25   14   15 ar
    26   14   16 1
    27   15   25 1
    28   16   26 1
@<TRIPOS>MOLECULE
ZINC00600761
   48    51     0     0     0
SMALL
USER_CHARGES

@<TRIPOS>ATOM
      1 C1          4.9013   -3.9971    0.1409 C.3       1 <0>        -0.1131
      2 C2          3.5916   -4.7425    0.1416 C.ar      1 <0>        -0.1345
      3 C3          3.5793   -6.1163    0.2894 C.ar      1 <0>        -0.0764
      4 C4          2.3812   -6.8038    0.2852 C.ar      1 <0>        -0.1419
      5 C5          1.1834   -6.1147    0.1377 C.ar      1 <0>         0.1629
      6 C6          1.1918   -4.7348   -0.0057 C.ar      1 <0>        -0.1526
      7 C7          2.3973   -4.0470   -0.0011 C.ar      1 <0>         0.1849
      8 N1          2.4102   -2.6565   -0.1457 N.pl3     1 <0>        -0.6301
      9 C8          1.3626   -2.0171   -0.7884 C.ar      1 <0>         0.5647
     10 N2          0.4235   -2.7460   -1.3746 N.ar      1 <0>        -0.5530
     11 C9         -0.5929   -2.1730   -1.9990 C.ar      1 <0>         0.1930
     12 C10        -0.6719   -0.7919   -2.0376 C.ar      1 <0>        -0.2701
     13 C11         0.3325   -0.0500   -1.4108 C.ar      1 <0>         0.2657
     14 N3          1.3283   -0.6941   -0.8063 N.ar      1 <0>        -0.5588
     15 C12         0.2931    1.4325   -1.4241 C.ar      1 <0>        -0.1160
     16 C13         1.2979    2.1756   -0.7971 C.ar      1 <0>        -0.0277
     17 C14         1.2156    3.5565   -0.8383 C.ar      1 <0>        -0.1782
     18 C15         0.1519    4.1518   -1.4922 C.ar      1 <0>         0.1168
     19 N4         -0.7811    3.4243   -2.0752 N.ar      1 <0>        -0.4846
     20 C16        -0.7427    2.1075   -2.0666 C.ar      1 <0>         0.1331
     21 N5         -0.0290   -6.8116    0.1331 N.am      1 <0>        -0.6644
     22 C17        -0.0687   -8.0922   -0.2852 C.2       1 <0>         0.5603
     23 O1          0.9284   -8.6118   -0.7474 O.2       1 <0>        -0.5120
     24 C18        -1.3246   -8.8648   -0.1820 C.ar      1 <0>        -0.1385
     25 C19        -2.4697   -8.2730    0.3536 C.ar      1 <0>        -0.0861
     26 C20        -3.6400   -8.9981    0.4422 C.ar      1 <0>        -0.1265
     27 C21        -3.6772  -10.3127    0.0123 C.ar      1 <0>        -0.0900
     28 C22        -2.5443  -10.9070   -0.5147 C.ar      1 <0>        -0.1263
     29 C23        -1.3691  -10.1914   -0.6143 C.ar      1 <0>        -0.0566
     30 H1          5.1571   -3.7111    1.1612 H         1 <0>         0.0702
     31 H2          5.6842   -4.6386   -0.2637 H         1 <0>         0.0725
     32 H3          4.8100   -3.1026   -0.4751 H         1 <0>         0.0604
     33 H4          4.5088   -6.6541    0.4042 H         1 <0>         0.1303
     34 H5          2.3753   -7.8779    0.3972 H         1 <0>         0.1414
     35 H6          0.2624   -4.1970   -0.1209 H         1 <0>         0.1518
     36 H7          3.1526   -2.1393    0.2039 H         1 <0>         0.4247
     37 H8         -1.3527   -2.7766   -2.4731 H         1 <0>         0.1748
     38 H9         -1.4910   -0.2991   -2.5402 H         1 <0>         0.1506
     39 H10         2.1172    1.6844   -0.2932 H         1 <0>         0.1467
     40 H11         1.9738    4.1629   -0.3652 H         1 <0>         0.1425
     41 H12         0.0846    5.2291   -1.5263 H         1 <0>         0.1620
     42 H13        -1.5233    1.5461   -2.5585 H         1 <0>         0.1625
     43 H14        -0.8414   -6.3733    0.4311 H         1 <0>         0.4094
     44 H15        -2.4407   -7.2484    0.6940 H         1 <0>         0.1252
     45 H16        -4.5278   -8.5401    0.8526 H         1 <0>         0.1309
     46 H17        -4.5947  -10.8773    0.0880 H         1 <0>         0.1296
     47 H18        -2.5802  -11.9332   -0.8492 H         1 <0>         0.1324
     48 H19        -0.4854  -10.6565   -1.0256 H         1 <0>         0.1380
@<TRIPOS>BOND
     1    1    2 1
     2    1   30 1
     3    1   31 1
     4    1   32 1
     5    2    7 ar
     6    2    3 ar
     7    3    4 ar
     8    3   33 1
     9    4    5 ar
    10    4   34 1
    11    5    6 ar
    12    5   21 1
    13    6    7 ar
    14    6   35 1
    15    7    8 1
    16    8    9 1
    17    8   36 1
    18    9   14 ar
    19    9   10 ar
    20   10   11 ar
    21   11   12 ar
    22   11   37 1
    23   12   13 ar
    24   12   38 1
    25   13   14 ar
    26   13   15 1
    27   15   20 ar
    28   15   16 ar
    29   16   17 ar
    30   16   39 1
    31   17   18 ar
    32   17   40 1
    33   18   19 ar
    34   18   41 1
    35   19   20 ar
    36   20   42 1
    37   21   22 am
    38   21   43 1
    39   22   23 2
    40   22   24 1
    41   24   29 ar
    42   24   25 ar
    43   25   26 ar
    44   25   44 1
    45   26   27 ar
    46   26   45 1
    47   27   28 ar
    48   27   46 1
    49   28   29 ar
    50   28   47 1
    51   29   48 1
@<TRIPOS>MOLECULE
ZINC00601820
   40    43     0     0     0
SMALL
USER_CHARGES

@<TRIPOS>ATOM
      1 C1          0.0591    1.0896    0.1025 C.3       1 <0>         0.0693
      2 N1         -0.4512    1.5807    1.3849 N.am      1 <0>        -0.5058
      3 C2         -0.5646    2.9313    1.5982 C.ar      1 <0>         0.4657
      4 C3         -1.0598    3.4211    2.8262 C.ar      1 <0>        -0.2716
      5 C4         -1.4333    2.5225    3.8517 C.2       1 <0>         0.0285
      6 C5         -1.3114    1.1768    3.6318 C.2       1 <0>        -0.1597
      7 C6         -0.7992    0.7020    2.3445 C.2       1 <0>         0.5572
      8 O1         -0.6876   -0.4937    2.1405 O.2       1 <0>        -0.5003
      9 C7         -1.6939    0.2094    4.6868 C.ar      1 <0>        -0.0120
     10 C8         -0.7486   -0.2216    5.6184 C.ar      1 <0>        -0.0062
     11 C9         -1.1129   -1.1199    6.6022 C.ar      1 <0>        -0.1062
     12 C10        -2.4088   -1.6003    6.6589 C.ar      1 <0>        -0.0866
     13 C11        -3.3493   -1.1811    5.7353 C.ar      1 <0>        -0.1061
     14 C12        -2.9995   -0.2791    4.7496 C.ar      1 <0>        -0.0062
     15 Cl1        -4.1812    0.2452    3.5911 Cl        1 <0>        -0.0500
     16 Cl2         0.8802    0.3746    5.5445 Cl        1 <0>        -0.0501
     17 C13        -1.1651    4.8089    3.0016 C.ar      1 <0>         0.2644
     18 N2         -0.8015    5.6004    2.0099 N.ar      1 <0>        -0.5677
     19 C14        -0.3442    5.1038    0.8660 C.ar      1 <0>         0.6075
     20 N3         -0.2270    3.8022    0.6537 N.ar      1 <0>        -0.5907
     21 N4          0.0231    5.9781   -0.1398 N.pl3     1 <0>        -0.6248
     22 C15        -0.1964    7.3460    0.0113 C.ar      1 <0>         0.2029
     23 C16        -1.3017    7.8194    0.7175 C.ar      1 <0>        -0.1666
     24 C17        -1.4807    9.1807    0.8480 C.ar      1 <0>         0.1183
     25 N5         -0.6279   10.0303    0.3069 N.ar      1 <0>        -0.4967
     26 C18         0.4274    9.6218   -0.3726 C.ar      1 <0>         0.1208
     27 C19         0.6804    8.2770   -0.5446 C.ar      1 <0>        -0.2009
     28 H1          0.0840   -0.0001    0.1147 H         1 <0>         0.1015
     29 H2          1.0660    1.4743   -0.0592 H         1 <0>         0.0806
     30 H3         -0.5932    1.4291   -0.7022 H         1 <0>         0.0808
     31 H4         -1.8093    2.8921    4.7943 H         1 <0>         0.1520
     32 H5         -0.3832   -1.4511    7.3264 H         1 <0>         0.1441
     33 H6         -2.6874   -2.3060    7.4275 H         1 <0>         0.1458
     34 H7         -4.3594   -1.5602    5.7848 H         1 <0>         0.1442
     35 H8         -1.5356    5.2210    3.9287 H         1 <0>         0.1903
     36 H9          0.4337    5.6395   -0.9508 H         1 <0>         0.4296
     37 H10        -2.0057    7.1297    1.1593 H         1 <0>         0.1460
     38 H11        -2.3320    9.5564    1.3964 H         1 <0>         0.1597
     39 H12         1.1010   10.3500   -0.7996 H         1 <0>         0.1605
     40 H13         1.5454    7.9496   -1.1023 H         1 <0>         0.1380
@<TRIPOS>BOND
     1    1    2 1
     2    1   28 1
     3    1   29 1
     4    1   30 1
     5    2    7 am
     6    2    3 1
     7    3   20 ar
     8    3    4 ar
     9    4    5 1
    10    4   17 ar
    11    5    6 2
    12    5   31 1
    13    6    7 1
    14    6    9 1
    15    7    8 2
    16    9   14 ar
    17    9   10 ar
    18   10   11 ar
    19   10   16 1
    20   11   12 ar
    21   11   32 1
    22   12   13 ar
    23   12   33 1
    24   13   14 ar
    25   13   34 1
    26   14   15 1
    27   17   18 ar
    28   17   35 1
    29   18   19 ar
    30   19   20 ar
    31   19   21 1
    32   21   22 1
    33   21   36 1
    34   22   27 ar
    35   22   23 ar
    36   23   24 ar
    37   23   37 1
    38   24   25 ar
    39   24   38 1
    40   25   26 ar
    41   26   27 ar
    42   26   39 1
    43   27   40 1
@<TRIPOS>MOLECULE
ZINC00838734
   41    44     0     0     0
SMALL
USER_CHARGES

@<TRIPOS>ATOM
      1 C1          0.0685    1.0902    0.1116 C.3       1 <0>         0.0700
      2 N1         -0.4262    1.5833    1.3993 N.am      1 <0>        -0.5062
      3 C2         -0.5385    2.9342    1.6114 C.ar      1 <0>         0.4666
      4 C3         -1.0181    3.4258    2.8448 C.ar      1 <0>        -0.2773
      5 C4         -1.3769    2.5290    3.8769 C.2       1 <0>         0.0314
      6 C5         -1.2565    1.1829    3.6581 C.2       1 <0>        -0.1644
      7 C6         -0.7608    0.7061    2.3651 C.2       1 <0>         0.5577
      8 O1         -0.6510   -0.4900    2.1618 O.2       1 <0>        -0.5028
      9 C7         -1.6239    0.2172    4.7199 C.ar      1 <0>        -0.0100
     10 C8         -0.6659   -0.2109    5.6398 C.ar      1 <0>        -0.0065
     11 C9         -1.0162   -1.1072    6.6305 C.ar      1 <0>        -0.1064
     12 C10        -2.3108   -1.5889    6.7053 C.ar      1 <0>        -0.0874
     13 C11        -3.2639   -1.1726    5.7933 C.ar      1 <0>        -0.1064
     14 C12        -2.9280   -0.2726    4.8010 C.ar      1 <0>        -0.0065
     15 Cl1        -4.1254    0.2477    3.6568 Cl        1 <0>        -0.0502
     16 Cl2         0.9613    0.3864    5.5428 Cl        1 <0>        -0.0503
     17 C13        -1.1230    4.8140    3.0188 C.ar      1 <0>         0.2641
     18 N2         -0.7738    5.6039    2.0208 N.ar      1 <0>        -0.5672
     19 C14        -0.3311    5.1056    0.8717 C.ar      1 <0>         0.6086
     20 N3         -0.2145    3.8035    0.6608 N.ar      1 <0>        -0.5951
     21 N4          0.0210    5.9779   -0.1404 N.pl3     1 <0>        -0.6261
     22 C15        -0.1997    7.3500    0.0111 C.ar      1 <0>         0.1544
     23 C16        -1.3057    7.8032    0.7189 C.ar      1 <0>        -0.1097
     24 C17        -1.5178    9.1593    0.8713 C.ar      1 <0>        -0.1005
     25 C18        -0.6364   10.0658    0.3112 C.ar      1 <0>        -0.1327
     26 C19         0.4626    9.6181   -0.3989 C.ar      1 <0>        -0.0995
     27 C20         0.6834    8.2633   -0.5505 C.ar      1 <0>        -0.1436
     28 H1          0.0950    0.0006    0.1257 H         1 <0>         0.1007
     29 H2          1.0729    1.4758   -0.0636 H         1 <0>         0.0801
     30 H3         -0.5942    1.4272   -0.6854 H         1 <0>         0.0803
     31 H4         -1.7408    2.9001    4.8236 H         1 <0>         0.1507
     32 H5         -0.2768   -1.4359    7.3458 H         1 <0>         0.1438
     33 H6         -2.5784   -2.2933    7.4789 H         1 <0>         0.1454
     34 H7         -4.2729   -1.5525    5.8572 H         1 <0>         0.1438
     35 H8         -1.4816    5.2275    3.9499 H         1 <0>         0.1883
     36 H9          0.4212    5.6382   -0.9561 H         1 <0>         0.4264
     37 H10        -1.9966    7.0958    1.1531 H         1 <0>         0.1341
     38 H11        -2.3753    9.5123    1.4249 H         1 <0>         0.1262
     39 H12        -0.8068   11.1258    0.4283 H         1 <0>         0.1239
     40 H13         1.1490   10.3287   -0.8350 H         1 <0>         0.1271
     41 H14         1.5417    7.9142   -1.1055 H         1 <0>         0.1251
@<TRIPOS>BOND
     1    1    2 1
     2    1   28 1
     3    1   29 1
     4    1   30 1
     5    2    7 am
     6    2    3 1
     7    3   20 ar
     8    3    4 ar
     9    4    5 1
    10    4   17 ar
    11    5    6 2
    12    5   31 1
    13    6    7 1
    14    6    9 1
    15    7    8 2
    16    9   14 ar
    17    9   10 ar
    18   10   11 ar
    19   10   16 1
    20   11   12 ar
    21   11   32 1
    22   12   13 ar
    23   12   33 1
    24   13   14 ar
    25   13   34 1
    26   14   15 1
    27   17   18 ar
    28   17   35 1
    29   18   19 ar
    30   19   20 ar
    31   19   21 1
    32   21   22 1
    33   21   36 1
    34   22   27 ar
    35   22   23 ar
    36   23   24 ar
    37   23   37 1
    38   24   25 ar
    39   24   38 1
    40   25   26 ar
    41   25   39 1
    42   26   27 ar
    43   26   40 1
    44   27   41 1
@<TRIPOS>MOLECULE
ZINC01488976
   40    43     0     0     0
SMALL
USER_CHARGES

@<TRIPOS>ATOM
      1 C1         -4.6784   -4.3744   -0.4055 C.ar      1 <0>        -0.0871
      2 C2         -4.7665   -2.9887   -0.2952 C.ar      1 <0>        -0.1016
      3 C3         -3.6456   -2.2183   -0.1942 C.ar      1 <0>        -0.0886
      4 C4         -2.3884   -2.8313   -0.1971 C.ar      1 <0>        -0.1031
      5 C5         -2.2974   -4.2428   -0.3143 C.ar      1 <0>        -0.0372
      6 C6         -3.4692   -5.0038   -0.4159 C.ar      1 <0>        -0.0990
      7 C7         -1.0135   -4.8185   -0.3182 C.ar      1 <0>         0.0710
      8 N1          0.0372   -4.0369   -0.2196 N.ar      1 <0>        -0.2120
      9 N2         -0.0366   -2.7622   -0.1185 N.ar      1 <0>        -0.3138
     10 C8         -1.1815   -2.1017   -0.1030 C.ar      1 <0>         0.3591
     11 N3         -1.1983   -0.7207    0.0092 N.pl3     1 <0>        -0.6405
     12 C9          0.0010   -0.0027   -0.0148 C.ar      1 <0>         0.1751
     13 C10         0.1283    1.1645    0.7280 C.ar      1 <0>        -0.1345
     14 C11         1.3140    1.8719    0.7033 C.ar      1 <0>        -0.0746
     15 C12         2.3756    1.4195   -0.0605 C.ar      1 <0>        -0.0505
     16 C13         2.2522    0.2565   -0.8020 C.ar      1 <0>        -0.0063
     17 C14         1.0674   -0.4553   -0.7807 C.ar      1 <0>        -0.0995
     18 Cl1         3.5863   -0.3083   -1.7585 Cl        1 <0>        -0.0401
     19 Cl2         3.8649    2.3111   -0.0886 Cl        1 <0>        -0.0472
     20 C15        -0.8463   -6.3117   -0.4345 C.3       1 <0>        -0.0238
     21 C16        -0.8375   -6.9249    0.9420 C.ar      1 <0>        -0.0367
     22 C17         0.3504   -7.0904    1.6377 C.ar      1 <0>        -0.1569
     23 C18         0.3189   -7.6527    2.8998 C.ar      1 <0>         0.1009
     24 N4         -0.8214   -8.0383    3.4382 N.ar      1 <0>        -0.4854
     25 C19        -1.9694   -7.9005    2.8040 C.ar      1 <0>         0.0993
     26 C20        -2.0165   -7.3422    1.5406 C.ar      1 <0>        -0.1703
     27 H1         -5.5827   -4.9597   -0.4837 H         1 <0>         0.1368
     28 H2         -5.7379   -2.5168   -0.2892 H         1 <0>         0.1360
     29 H3         -3.7281   -1.1448   -0.1092 H         1 <0>         0.1319
     30 H4         -3.4150   -6.0790   -0.5019 H         1 <0>         0.1415
     31 H5         -2.0423   -0.2520    0.1043 H         1 <0>         0.4226
     32 H6         -0.6998    1.5186    1.3241 H         1 <0>         0.1411
     33 H7          1.4128    2.7794    1.2804 H         1 <0>         0.1481
     34 H8          0.9726   -1.3647   -1.3555 H         1 <0>         0.1559
     35 H9         -1.6731   -6.7260   -1.0116 H         1 <0>         0.0980
     36 H10         0.0949   -6.5338   -0.9373 H         1 <0>         0.1051
     37 H11         1.2880   -6.7808    1.2002 H         1 <0>         0.1399
     38 H12         1.2395   -7.7820    3.4496 H         1 <0>         0.1574
     39 H13        -2.8832   -8.2281    3.2772 H         1 <0>         0.1559
     40 H14        -2.9596   -7.2327    1.0260 H         1 <0>         0.1331
@<TRIPOS>BOND
     1    1    6 ar
     2    1    2 ar
     3    1   27 1
     4    2    3 ar
     5    2   28 1
     6    3    4 ar
     7    3   29 1
     8    4   10 ar
     9    4    5 ar
    10    5    6 ar
    11    5    7 ar
    12    6   30 1
    13    7    8 ar
    14    7   20 1
    15    8    9 ar
    16    9   10 ar
    17   10   11 1
    18   11   12 1
    19   11   31 1
    20   12   17 ar
    21   12   13 ar
    22   13   14 ar
    23   13   32 1
    24   14   15 ar
    25   14   33 1
    26   15   16 ar
    27   15   19 1
    28   16   17 ar
    29   16   18 1
    30   17   34 1
    31   20   21 1
    32   20   35 1
    33   20   36 1
    34   21   26 ar
    35   21   22 ar
    36   22   23 ar
    37   22   37 1
    38   23   24 ar
    39   23   38 1
    40   24   25 ar
    41   25   26 ar
    42   25   39 1
    43   26   40 1
@<TRIPOS>MOLECULE
ZINC02047503
   45    48     0     0     0
SMALL
USER_CHARGES

@<TRIPOS>ATOM
      1 C1          0.0685    1.0902    0.1116 C.3       1 <0>         0.0699
      2 N1         -0.4262    1.5833    1.3993 N.am      1 <0>        -0.5062
      3 C2         -0.5386    2.9342    1.6113 C.ar      1 <0>         0.4668
      4 C3         -1.0182    3.4258    2.8448 C.ar      1 <0>        -0.2772
      5 C4         -1.3770    2.5290    3.8769 C.2       1 <0>         0.0314
      6 C5         -1.2566    1.1828    3.6580 C.2       1 <0>        -0.1643
      7 C6         -0.7609    0.7061    2.3650 C.2       1 <0>         0.5577
      8 O1         -0.6511   -0.4900    2.1618 O.2       1 <0>        -0.5027
      9 C7         -1.6241    0.2171    4.7198 C.ar      1 <0>        -0.0102
     10 C8         -0.6661   -0.2109    5.6397 C.ar      1 <0>        -0.0065
     11 C9         -1.0165   -1.1073    6.6304 C.ar      1 <0>        -0.1064
     12 C10        -2.3111   -1.5889    6.7051 C.ar      1 <0>        -0.0874
     13 C11        -3.2642   -1.1726    5.7932 C.ar      1 <0>        -0.1064
     14 C12        -2.9282   -0.2726    4.8008 C.ar      1 <0>        -0.0064
     15 Cl1        -4.1255    0.2477    3.6566 Cl        1 <0>        -0.0501
     16 Cl2         0.9610    0.3864    5.5428 Cl        1 <0>        -0.0503
     17 C13        -1.1231    4.8140    3.0188 C.ar      1 <0>         0.2643
     18 N2         -0.7739    5.6039    2.0208 N.ar      1 <0>        -0.5677
     19 C14        -0.3311    5.1056    0.8717 C.ar      1 <0>         0.6091
     20 N3         -0.2145    3.8035    0.6608 N.ar      1 <0>        -0.5948
     21 N4          0.0210    5.9779   -0.1404 N.pl3     1 <0>        -0.6255
     22 C15        -0.1997    7.3500    0.0111 C.ar      1 <0>         0.1535
     23 C16        -1.3058    7.8032    0.7190 C.ar      1 <0>        -0.1019
     24 C17        -1.5179    9.1592    0.8714 C.ar      1 <0>        -0.1022
     25 C18        -0.6364   10.0658    0.3112 C.ar      1 <0>        -0.1107
     26 C19         0.4624    9.6181   -0.3988 C.ar      1 <0>        -0.0740
     27 C20         0.6833    8.2631   -0.5504 C.ar      1 <0>        -0.1226
     28 C21         1.4197   10.6097   -1.0082 C.3       1 <0>         0.1166
     29 O2          0.9930   10.9310   -2.3336 O.3       1 <0>        -0.5676
     30 H1          0.0950    0.0006    0.1256 H         1 <0>         0.1008
     31 H2          1.0728    1.4758   -0.0636 H         1 <0>         0.0801
     32 H3         -0.5942    1.4272   -0.6855 H         1 <0>         0.0804
     33 H4         -1.7410    2.9000    4.8236 H         1 <0>         0.1507
     34 H5         -0.2771   -1.4360    7.3457 H         1 <0>         0.1438
     35 H6         -2.5787   -2.2934    7.4788 H         1 <0>         0.1454
     36 H7         -4.2732   -1.5525    5.8570 H         1 <0>         0.1438
     37 H8         -1.4817    5.2275    3.9498 H         1 <0>         0.1884
     38 H9          0.4212    5.6382   -0.9561 H         1 <0>         0.4268
     39 H10        -1.9968    7.0958    1.1532 H         1 <0>         0.1360
     40 H11        -2.3754    9.5121    1.4250 H         1 <0>         0.1294
     41 H12        -0.8068   11.1258    0.4283 H         1 <0>         0.1250
     42 H13         1.5416    7.9141   -1.1054 H         1 <0>         0.1259
     43 H14         1.4384   11.5159   -0.4028 H         1 <0>         0.0579
     44 H15         2.4189   10.1755   -1.0434 H         1 <0>         0.0551
     45 H16         1.5640   11.5657   -2.7877 H         1 <0>         0.3824
@<TRIPOS>BOND
     1    1    2 1
     2    1   30 1
     3    1   31 1
     4    1   32 1
     5    2    7 am
     6    2    3 1
     7    3   20 ar
     8    3    4 ar
     9    4    5 1
    10    4   17 ar
    11    5    6 2
    12    5   33 1
    13    6    7 1
    14    6    9 1
    15    7    8 2
    16    9   14 ar
    17    9   10 ar
    18   10   11 ar
    19   10   16 1
    20   11   12 ar
    21   11   34 1
    22   12   13 ar
    23   12   35 1
    24   13   14 ar
    25   13   36 1
    26   14   15 1
    27   17   18 ar
    28   17   37 1
    29   18   19 ar
    30   19   20 ar
    31   19   21 1
    32   21   22 1
    33   21   38 1
    34   22   27 ar
    35   22   23 ar
    36   23   24 ar
    37   23   39 1
    38   24   25 ar
    39   24   40 1
    40   25   26 ar
    41   25   41 1
    42   26   27 ar
    43   26   28 1
    44   27   42 1
    45   28   29 1
    46   28   43 1
    47   28   44 1
    48   29   45 1
@<TRIPOS>MOLECULE
ZINC03815223
   45    48     0     0     0
SMALL
USER_CHARGES

@<TRIPOS>ATOM
      1 C1         -3.8390    7.9998    7.4838 C.3       1 <0>         0.0697
      2 N1         -3.2868    8.9285    6.4944 N.am      1 <0>        -0.5058
      3 C2         -2.7444    8.4396    5.3328 C.ar      1 <0>         0.4664
      4 C3         -2.2079    9.3208    4.3691 C.ar      1 <0>        -0.2759
      5 C4         -2.2258   10.7164    4.5933 C.2       1 <0>         0.0305
      6 C5         -2.7695   11.1950    5.7550 C.2       1 <0>        -0.1636
      7 C6         -3.3170   10.2535    6.7341 C.2       1 <0>         0.5568
      8 O1         -3.8026   10.6709    7.7704 O.2       1 <0>        -0.5013
      9 C7         -2.8033   12.6524    6.0196 C.ar      1 <0>        -0.0102
     10 C8         -1.7424   13.2687    6.6843 C.ar      1 <0>        -0.0065
     11 C9         -1.7781   14.6284    6.9240 C.ar      1 <0>        -0.1064
     12 C10        -2.8671   15.3773    6.5156 C.ar      1 <0>        -0.0874
     13 C11        -3.9242   14.7718    5.8605 C.ar      1 <0>        -0.1064
     14 C12        -3.8988   13.4137    5.6103 C.ar      1 <0>        -0.0065
     15 Cl1        -5.2270   12.6554    4.7891 Cl        1 <0>        -0.0502
     16 Cl2        -0.3781   12.3293    7.2039 Cl        1 <0>        -0.0501
     17 C13        -1.6623    8.7799    3.1952 C.ar      1 <0>         0.2641
     18 N2         -1.6678    7.4690    3.0417 N.ar      1 <0>        -0.5651
     19 C14        -2.1863    6.6702    3.9680 C.ar      1 <0>         0.6102
     20 N3         -2.7120    7.1338    5.0914 N.ar      1 <0>        -0.5951
     21 N4         -2.1714    5.3052    3.7538 N.pl3     1 <0>        -0.6248
     22 C15        -1.7307    4.7946    2.5293 C.ar      1 <0>         0.1960
     23 C16        -1.9630    5.5024    1.3562 C.ar      1 <0>        -0.1458
     24 C17        -1.5272    4.9980    0.1466 C.ar      1 <0>        -0.0599
     25 C18        -0.8546    3.7914    0.0999 C.ar      1 <0>        -0.2207
     26 C19        -0.6244    3.0776    1.2675 C.ar      1 <0>         0.1477
     27 C20        -1.0602    3.5803    2.4836 C.ar      1 <0>        -0.1789
     28 O2          0.0329    1.8891    1.2194 O.3       1 <0>        -0.3170
     29 C21         0.4531    1.4318   -0.0676 C.3       1 <0>         0.0273
     30 H1         -3.0568    7.7078    8.1844 H         1 <0>         0.0747
     31 H2         -4.6495    8.4866    8.0263 H         1 <0>         0.0923
     32 H3         -4.2218    7.1141    6.9767 H         1 <0>         0.0953
     33 H4         -1.8168   11.3948    3.8592 H         1 <0>         0.1508
     34 H5         -0.9558   15.1074    7.4347 H         1 <0>         0.1438
     35 H6         -2.8922   16.4395    6.7094 H         1 <0>         0.1454
     36 H7         -4.7715   15.3621    5.5443 H         1 <0>         0.1438
     37 H8         -1.2424    9.4223    2.4353 H         1 <0>         0.1886
     38 H9         -2.4666    4.7013    4.4530 H         1 <0>         0.4279
     39 H10        -2.4850    6.4473    1.3903 H         1 <0>         0.1370
     40 H11        -1.7083    5.5496   -0.7641 H         1 <0>         0.1300
     41 H12        -0.5111    3.4017   -0.8469 H         1 <0>         0.1296
     42 H13        -0.8779    3.0284    3.3938 H         1 <0>         0.1338
     43 H14         0.9638    0.4744    0.0360 H         1 <0>         0.1014
     44 H15         1.1335    2.1608   -0.5079 H         1 <0>         0.0573
     45 H16        -0.4173    1.3114   -0.7124 H         1 <0>         0.0572
@<TRIPOS>BOND
     1    1    2 1
     2    1   30 1
     3    1   31 1
     4    1   32 1
     5    2    7 am
     6    2    3 1
     7    3   20 ar
     8    3    4 ar
     9    4    5 1
    10    4   17 ar
    11    5    6 2
    12    5   33 1
    13    6    7 1
    14    6    9 1
    15    7    8 2
    16    9   14 ar
    17    9   10 ar
    18   10   11 ar
    19   10   16 1
    20   11   12 ar
    21   11   34 1
    22   12   13 ar
    23   12   35 1
    24   13   14 ar
    25   13   36 1
    26   14   15 1
    27   17   18 ar
    28   17   37 1
    29   18   19 ar
    30   19   20 ar
    31   19   21 1
    32   21   22 1
    33   21   38 1
    34   22   27 ar
    35   22   23 ar
    36   23   24 ar
    37   23   39 1
    38   24   25 ar
    39   24   40 1
    40   25   26 ar
    41   25   41 1
    42   26   27 ar
    43   26   28 1
    44   27   42 1
    45   28   29 1
    46   29   43 1
    47   29   44 1
    48   29   45 1
@<TRIPOS>MOLECULE
ZINC03815240
   63    66     0     0     0
SMALL
USER_CHARGES

@<TRIPOS>ATOM
      1 C1          4.3966   -4.7837   -2.5468 C.3       1 <0>        -0.1870
      2 C2          2.8964   -4.6021   -2.7861 C.3       1 <0>        -0.0162
      3 C3          2.4461   -6.8910   -2.1372 C.3       1 <0>        -0.0118
      4 C4          1.8425   -7.2999   -3.4823 C.3       1 <0>        -0.1890
      5 C5          2.4154   -5.1324   -0.4731 C.3       1 <0>        -0.0017
      6 C6          1.8626   -3.7372   -0.1755 C.3       1 <0>         0.0258
      7 O1          0.4386   -3.7538   -0.2937 O.3       1 <0>        -0.3284
      8 C7         -0.2140   -2.5840   -0.0593 C.ar      1 <0>         0.0962
      9 C8         -1.5967   -2.5300   -0.1569 C.ar      1 <0>        -0.1190
     10 C9         -2.2601   -1.3423    0.0800 C.ar      1 <0>        -0.0693
     11 C10        -1.5427   -0.2019    0.4166 C.ar      1 <0>         0.1456
     12 C11        -0.1586   -0.2569    0.5145 C.ar      1 <0>        -0.1051
     13 C12         0.5033   -1.4453    0.2768 C.ar      1 <0>        -0.1797
     14 N1         -2.2146    1.0029    0.6565 N.pl3     1 <0>        -0.6299
     15 C13        -3.4618    0.9918    1.2505 C.ar      1 <0>         0.6044
     16 N2         -3.9572   -0.1650    1.6772 N.ar      1 <0>        -0.5742
     17 C14        -5.1437   -0.2299    2.2512 C.ar      1 <0>         0.2632
     18 C15        -5.8809    0.9543    2.4052 C.ar      1 <0>        -0.2686
     19 C16        -7.1573    0.9487    3.0126 C.2       1 <0>         0.0223
     20 C17        -7.8369    2.1304    3.1401 C.2       1 <0>        -0.1517
     21 C18        -7.2276    3.3671    2.6461 C.2       1 <0>         0.5544
     22 O2         -7.8250    4.4230    2.7559 O.2       1 <0>        -0.4939
     23 N3         -6.0096    3.3430    2.0714 N.am      1 <0>        -0.5055
     24 C19        -5.3213    2.1634    1.9394 C.ar      1 <0>         0.4667
     25 N4         -4.1173    2.1350    1.3785 N.ar      1 <0>        -0.5922
     26 C20        -5.4137    4.5888    1.5828 C.3       1 <0>         0.0688
     27 C21        -9.1768    2.1577    3.7717 C.ar      1 <0>        -0.0161
     28 C22       -10.3226    1.9980    2.9915 C.ar      1 <0>        -0.0058
     29 C23       -11.5685    2.0201    3.5872 C.ar      1 <0>        -0.1054
     30 C24       -11.6824    2.2097    4.9527 C.ar      1 <0>        -0.0846
     31 C25       -10.5507    2.3740    5.7310 C.ar      1 <0>        -0.1053
     32 C26        -9.2987    2.3491    5.1486 C.ar      1 <0>        -0.0060
     33 Cl1        -7.8797    2.5560    6.1271 Cl        1 <0>        -0.0505
     34 Cl2       -10.1822    1.7665    1.2768 Cl        1 <0>        -0.0510
     35 H1          4.9531   -4.1230   -3.2115 H         1 <0>         0.1068
     36 H2          4.6315   -4.5389   -1.5110 H         1 <0>         0.0793
     37 H3          4.6739   -5.8185   -2.7475 H         1 <0>         0.0822
     38 H4          2.6589   -4.8621   -3.8177 H         1 <0>         0.1316
     39 H5          2.6219   -3.5637   -2.6008 H         1 <0>         0.1265
     40 H6          3.5263   -7.0339   -2.1651 H         1 <0>         0.1326
     41 H7          2.0186   -7.5058   -1.3452 H         1 <0>         0.1298
     42 H8          2.0860   -8.3423   -3.6879 H         1 <0>         0.1065
     43 H9          0.7598   -7.1800   -3.4463 H         1 <0>         0.0812
     44 H10         2.2519   -6.6689   -4.2712 H         1 <0>         0.0791
     45 H11         3.4910   -5.1423   -0.2968 H         1 <0>         0.1506
     46 H12         1.9336   -5.8608    0.1791 H         1 <0>         0.1410
     47 H13         2.2779   -3.0226   -0.8861 H         1 <0>         0.0853
     48 H14         2.1397   -3.4450    0.8374 H         1 <0>         0.1080
     49 H15        -2.1544   -3.4170   -0.4187 H         1 <0>         0.1368
     50 H16        -3.3362   -1.2993   -0.0007 H         1 <0>         0.1474
     51 H17         0.4000    0.6295    0.7766 H         1 <0>         0.1342
     52 H18         1.5798   -1.4882    0.3529 H         1 <0>         0.1308
     53 H19        -1.8044    1.8453    0.4058 H         1 <0>         0.4284
     54 H20        -5.5388   -1.1742    2.5955 H         1 <0>         0.1893
     55 H21        -7.5900    0.0261    3.3703 H         1 <0>         0.1521
     56 H22        -5.7018    4.7463    0.5434 H         1 <0>         0.0759
     57 H23        -5.7679    5.4230    2.1883 H         1 <0>         0.0941
     58 H24        -4.3278    4.5242    1.6530 H         1 <0>         0.0949
     59 H25       -12.4560    1.8924    2.9851 H         1 <0>         0.1450
     60 H26       -12.6591    2.2300    5.4131 H         1 <0>         0.1471
     61 H27       -10.6465    2.5224    6.7965 H         1 <0>         0.1451
     62 N5          2.1179   -5.4728   -1.8803 N.4       1 <0>        -0.3969
     63 H28         1.1169   -5.3253   -2.0547 H         1 <0>         0.4358
@<TRIPOS>BOND
     1    1    2 1
     2    1   35 1
     3    1   36 1
     4    1   37 1
     5    2   38 1
     6    2   39 1
     7    2   62 1
     8    3    4 1
     9    3   40 1
    10    3   41 1
    11    3   62 1
    12    4   42 1
    13    4   43 1
    14    4   44 1
    15    5    6 1
    16    5   45 1
    17    5   46 1
    18    5   62 1
    19    6    7 1
    20    6   47 1
    21    6   48 1
    22    7    8 1
    23    8   13 ar
    24    8    9 ar
    25    9   10 ar
    26    9   49 1
    27   10   11 ar
    28   10   50 1
    29   11   12 ar
    30   11   14 1
    31   12   13 ar
    32   12   51 1
    33   13   52 1
    34   14   15 1
    35   14   53 1
    36   15   25 ar
    37   15   16 ar
    38   16   17 ar
    39   17   18 ar
    40   17   54 1
    41   18   24 ar
    42   18   19 1
    43   19   20 2
    44   19   55 1
    45   20   21 1
    46   20   27 1
    47   21   22 2
    48   21   23 am
    49   23   24 1
    50   23   26 1
    51   24   25 ar
    52   26   56 1
    53   26   57 1
    54   26   58 1
    55   27   32 ar
    56   27   28 ar
    57   28   29 ar
    58   28   34 1
    59   29   30 ar
    60   29   59 1
    61   30   31 ar
    62   30   60 1
    63   31   32 ar
    64   31   61 1
    65   32   33 1
    66   62   63 1
@<TRIPOS>MOLECULE
ZINC03815261
   52    55     0     0     0
SMALL
USER_CHARGES

@<TRIPOS>ATOM
      1 C1          0.0685    1.0902    0.1116 C.3       1 <0>         0.0709
      2 N1         -0.4262    1.5833    1.3993 N.am      1 <0>        -0.5064
      3 C2         -0.5385    2.9342    1.6114 C.ar      1 <0>         0.4672
      4 C3         -1.0181    3.4258    2.8448 C.ar      1 <0>        -0.2850
      5 C4         -1.3769    2.5290    3.8769 C.2       1 <0>         0.0388
      6 C5         -1.2565    1.1829    3.6581 C.2       1 <0>        -0.1755
      7 C6         -0.7608    0.7061    2.3651 C.2       1 <0>         0.5598
      8 O1         -0.6510   -0.4900    2.1618 O.2       1 <0>        -0.5093
      9 C7         -1.6239    0.2172    4.7199 C.ar      1 <0>        -0.0047
     10 C8         -0.6659   -0.2109    5.6398 C.ar      1 <0>        -0.0070
     11 C9         -1.0162   -1.1072    6.6305 C.ar      1 <0>        -0.1076
     12 C10        -2.3108   -1.5889    6.7053 C.ar      1 <0>        -0.0898
     13 C11        -3.2639   -1.1726    5.7933 C.ar      1 <0>        -0.1072
     14 C12        -2.9280   -0.2726    4.8010 C.ar      1 <0>        -0.0071
     15 Cl1        -4.1254    0.2477    3.6568 Cl        1 <0>        -0.0490
     16 Cl2         0.9613    0.3864    5.5428 Cl        1 <0>        -0.0504
     17 C13        -1.1230    4.8140    3.0188 C.ar      1 <0>         0.2657
     18 N2         -0.7738    5.6039    2.0208 N.ar      1 <0>        -0.5630
     19 C14        -0.3311    5.1056    0.8717 C.ar      1 <0>         0.6117
     20 N3         -0.2145    3.8035    0.6608 N.ar      1 <0>        -0.5989
     21 N4          0.0210    5.9779   -0.1404 N.pl3     1 <0>        -0.6196
     22 C15        -0.1997    7.3500    0.0111 C.ar      1 <0>         0.1342
     23 C16        -1.3057    7.8032    0.7189 C.ar      1 <0>        -0.1032
     24 C17        -1.5173    9.1593    0.8720 C.ar      1 <0>        -0.0993
     25 C18        -0.6364   10.0658    0.3112 C.ar      1 <0>        -0.0740
     26 C19         0.4626    9.6181   -0.3989 C.ar      1 <0>        -0.0986
     27 C20         0.6834    8.2633   -0.5505 C.ar      1 <0>        -0.1368
     28 C21        -0.8742   11.5449    0.4746 C.3       1 <0>        -0.0849
     29 C22        -1.7351   12.0540   -0.6832 C.3       1 <0>        -0.0910
     30 C23        -1.9766   13.5557   -0.5173 C.3       1 <0>        -0.1584
     31 C24        -2.8245   14.0572   -1.6577 C.2       1 <0>         0.4572
     32 O2         -3.1974   13.2920   -2.5152 O.co2     1 <0>        -0.6417
     33 H1          0.0950    0.0006    0.1257 H         1 <0>         0.0991
     34 H2          1.0729    1.4758   -0.0636 H         1 <0>         0.0794
     35 H3         -0.5942    1.4272   -0.6854 H         1 <0>         0.0801
     36 H4         -1.7408    2.9001    4.8236 H         1 <0>         0.1491
     37 H5         -0.2768   -1.4359    7.3458 H         1 <0>         0.1425
     38 H6         -2.5784   -2.2933    7.4789 H         1 <0>         0.1439
     39 H7         -4.2729   -1.5525    5.8572 H         1 <0>         0.1427
     40 H8         -1.4816    5.2275    3.9499 H         1 <0>         0.1872
     41 H9          0.4212    5.6382   -0.9561 H         1 <0>         0.4249
     42 H10        -1.9966    7.0958    1.1531 H         1 <0>         0.1313
     43 H11        -2.3744    9.5123    1.4263 H         1 <0>         0.1262
     44 H12         1.1490   10.3287   -0.8350 H         1 <0>         0.1272
     45 H13         1.5421    7.9142   -1.1049 H         1 <0>         0.1224
     46 H14        -1.3888   11.7282    1.4179 H         1 <0>         0.0693
     47 H15         0.0816   12.0688    0.4744 H         1 <0>         0.0687
     48 H16        -1.2205   11.8708   -1.6265 H         1 <0>         0.0612
     49 H17        -2.6909   11.5301   -0.6830 H         1 <0>         0.0614
     50 H18        -2.4911   13.7390    0.4260 H         1 <0>         0.0629
     51 H19        -1.0207   14.0796   -0.5175 H         1 <0>         0.0627
     52 O3         -3.1655   15.3539   -1.7209 O.co2     1 <0>        -0.7790
@<TRIPOS>BOND
     1    1    2 1
     2    1   33 1
     3    1   34 1
     4    1   35 1
     5    2    7 am
     6    2    3 1
     7    3   20 ar
     8    3    4 ar
     9    4    5 1
    10    4   17 ar
    11    5    6 2
    12    5   36 1
    13    6    7 1
    14    6    9 1
    15    7    8 2
    16    9   14 ar
    17    9   10 ar
    18   10   11 ar
    19   10   16 1
    20   11   12 ar
    21   11   37 1
    22   12   13 ar
    23   12   38 1
    24   13   14 ar
    25   13   39 1
    26   14   15 1
    27   17   18 ar
    28   17   40 1
    29   18   19 ar
    30   19   20 ar
    31   19   21 1
    32   21   22 1
    33   21   41 1
    34   22   27 ar
    35   22   23 ar
    36   23   24 ar
    37   23   42 1
    38   24   25 ar
    39   24   43 1
    40   25   26 ar
    41   25   28 1
    42   26   27 ar
    43   26   44 1
    44   27   45 1
    45   28   29 1
    46   28   46 1
    47   28   47 1
    48   29   30 1
    49   29   48 1
    50   29   49 1
    51   30   31 1
    52   30   50 1
    53   30   51 1
    54   31   32 2
    55   31   52 1
@<TRIPOS>MOLECULE
ZINC03815288
   42    45     0     0     0
SMALL
USER_CHARGES

@<TRIPOS>ATOM
      1 C1          0.8590   10.0323    0.4454 C.3       1 <0>         0.0699
      2 N1          2.1520    9.3435    0.4335 N.am      1 <0>        -0.5058
      3 C2          2.1922    7.9764    0.3242 C.ar      1 <0>         0.4661
      4 C3          3.4297    7.2973    0.3112 C.ar      1 <0>        -0.2752
      5 C4          4.6396    8.0215    0.4105 C.2       1 <0>         0.0304
      6 C5          4.5897    9.3854    0.5187 C.2       1 <0>        -0.1632
      7 C6          3.2892   10.0588    0.5296 C.2       1 <0>         0.5569
      8 O1          3.2358   11.2720    0.6256 O.2       1 <0>        -0.5011
      9 C7          5.8401   10.1731    0.6244 C.ar      1 <0>        -0.0104
     10 C8          6.3880   10.4532    1.8768 C.ar      1 <0>        -0.0064
     11 C9          7.5560   11.1847    1.9682 C.ar      1 <0>        -0.1063
     12 C10         8.1775   11.6472    0.8222 C.ar      1 <0>        -0.0872
     13 C11         7.6370   11.3770   -0.4221 C.ar      1 <0>        -0.1063
     14 C12         6.4718   10.6429   -0.5277 C.ar      1 <0>        -0.0064
     15 Cl1         5.7945   10.3060   -2.0902 Cl        1 <0>        -0.0503
     16 Cl2         5.6064    9.8789    3.3166 Cl        1 <0>        -0.0501
     17 C13         3.4266    5.8989    0.1984 C.ar      1 <0>         0.2650
     18 N2          2.2669    5.2745    0.1139 N.ar      1 <0>        -0.5662
     19 C14         1.1213    5.9471    0.1244 C.ar      1 <0>         0.6075
     20 N3          1.0737    7.2663    0.2291 N.ar      1 <0>        -0.5952
     21 N4         -0.0643    5.2439    0.0281 N.pl3     1 <0>        -0.6260
     22 C15        -0.0425    3.8650   -0.2009 C.ar      1 <0>         0.1731
     23 C16        -1.0219    3.0516    0.3562 C.ar      1 <0>        -0.1529
     24 C17        -0.9997    1.6892    0.1306 C.ar      1 <0>        -0.0813
     25 C18        -0.0044    1.1313   -0.6495 C.ar      1 <0>        -0.1594
     26 C19         0.9791    1.9380   -1.2044 C.ar      1 <0>         0.1254
     27 C20         0.9576    3.3064   -0.9844 C.ar      1 <0>        -0.1379
     28 O2          1.9599    1.3872   -1.9669 O.3       1 <0>        -0.4959
     29 H1          0.5036   10.1202    1.4720 H         1 <0>         0.0747
     30 H2          0.9731   11.0267    0.0140 H         1 <0>         0.0924
     31 H3          0.1384    9.4623   -0.1411 H         1 <0>         0.0950
     32 H4          5.5890    7.5068    0.4007 H         1 <0>         0.1510
     33 H5          7.9830   11.3994    2.9367 H         1 <0>         0.1439
     34 H6          9.0886   12.2219    0.8993 H         1 <0>         0.1455
     35 H7          8.1269   11.7413   -1.3130 H         1 <0>         0.1439
     36 H8          4.3535    5.3446    0.1854 H         1 <0>         0.1887
     37 H9         -0.9117    5.7071    0.1193 H         1 <0>         0.4279
     38 H10        -1.8007    3.4851    0.9661 H         1 <0>         0.1291
     39 H11        -1.7612    1.0585    0.5650 H         1 <0>         0.1331
     40 H12         0.0105    0.0656   -0.8237 H         1 <0>         0.1306
     41 H13         1.7198    3.9362   -1.4189 H         1 <0>         0.1418
     42 H14         1.7457    1.3391   -2.9087 H         1 <0>         0.3917
@<TRIPOS>BOND
     1    1    2 1
     2    1   29 1
     3    1   30 1
     4    1   31 1
     5    2    7 am
     6    2    3 1
     7    3   20 ar
     8    3    4 ar
     9    4    5 1
    10    4   17 ar
    11    5    6 2
    12    5   32 1
    13    6    7 1
    14    6    9 1
    15    7    8 2
    16    9   14 ar
    17    9   10 ar
    18   10   11 ar
    19   10   16 1
    20   11   12 ar
    21   11   33 1
    22   12   13 ar
    23   12   34 1
    24   13   14 ar
    25   13   35 1
    26   14   15 1
    27   17   18 ar
    28   17   36 1
    29   18   19 ar
    30   19   20 ar
    31   19   21 1
    32   21   22 1
    33   21   37 1
    34   22   27 ar
    35   22   23 ar
    36   23   24 ar
    37   23   38 1
    38   24   25 ar
    39   24   39 1
    40   25   26 ar
    41   25   40 1
    42   26   27 ar
    43   26   28 1
    44   27   41 1
    45   28   42 1
@<TRIPOS>MOLECULE
ZINC03815289
   73    76     0     0     0
SMALL
USER_CHARGES

@<TRIPOS>ATOM
      1 C1         -4.5476    1.9598   -6.0779 C.3       1 <0>        -0.1653
      2 C2         -3.1554    1.3302   -5.9996 C.3       1 <0>         0.1875
      3 C3         -2.2965    1.8463   -7.1558 C.3       1 <0>        -0.1577
      4 C4         -3.2778   -0.1919   -6.0951 C.3       1 <0>        -0.1654
      5 N1         -2.5274    1.6906   -4.7260 N.am      1 <0>        -0.7322
      6 C5         -3.1104    1.3372   -3.5634 C.2       1 <0>         0.6944
      7 O1         -4.1574    0.7194   -3.5715 O.2       1 <0>        -0.5077
      8 N2         -2.5327    1.6688   -2.3917 N.am      1 <0>        -0.6579
      9 C6         -3.1328    1.3050   -1.1949 C.ar      1 <0>         0.4915
     10 C7         -2.5145    1.6602    0.0229 C.ar      1 <0>        -0.1503
     11 C8         -3.1075    1.2934    1.2205 C.ar      1 <0>         0.0442
     12 C9         -4.3191    0.5850    1.1654 C.ar      1 <0>        -0.2852
     13 C10        -4.9944    0.1771    2.3285 C.ar      1 <0>         0.2685
     14 N3         -6.1242   -0.4885    2.1986 N.ar      1 <0>        -0.5792
     15 C11        -6.6263   -0.7753    0.9994 C.ar      1 <0>         0.5852
     16 N4         -6.0355   -0.4176   -0.1249 N.ar      1 <0>        -0.5542
     17 C12        -4.8825    0.2626   -0.0970 C.ar      1 <0>         0.4293
     18 N5         -4.2670    0.6354   -1.2206 N.ar      1 <0>        -0.4750
     19 N6         -7.8150   -1.4767    0.9293 N.pl3     1 <0>        -0.7062
     20 C13        -8.4959   -1.8890    2.1592 C.3       1 <0>         0.1459
     21 C14        -9.7785   -2.6436    1.8036 C.3       1 <0>        -0.1686
     22 C15       -10.4896   -3.0741    3.0880 C.3       1 <0>        -0.0008
     23 C16       -12.6921   -2.9089    2.0947 C.3       1 <0>        -0.0333
     24 C17       -13.9253   -3.7171    1.6845 C.3       1 <0>        -0.0263
     25 C18       -13.5403   -5.2394    3.5265 C.3       1 <0>        -0.0268
     26 C19       -12.3071   -4.4312    3.9367 C.3       1 <0>        -0.0261
     27 C20       -15.7428   -5.0741    2.5331 C.3       1 <0>        -0.0461
     28 C21        -1.2380    2.4142    0.0210 C.ar      1 <0>        -0.0511
     29 C22        -1.2484    3.8090    0.0341 C.ar      1 <0>        -0.0122
     30 C23        -0.0556    4.5057    0.0264 C.ar      1 <0>        -0.1024
     31 C24         1.1473    3.8231    0.0117 C.ar      1 <0>        -0.0780
     32 C25         1.1644    2.4401    0.0040 C.ar      1 <0>        -0.1023
     33 C26        -0.0215    1.7317    0.0116 C.ar      1 <0>        -0.0125
     34 Cl1         0.0021   -0.0041    0.0020 Cl        1 <0>        -0.0438
     35 Cl2        -2.7571    4.6675    0.0520 Cl        1 <0>        -0.0442
     36 H1         -4.4604    3.0441   -6.0098 H         1 <0>         0.0540
     37 H2         -5.0148    1.6916   -7.0255 H         1 <0>         0.0653
     38 H3         -5.1595    1.5921   -5.2542 H         1 <0>         0.0787
     39 H4         -1.3046    1.3978   -7.1000 H         1 <0>         0.0641
     40 H5         -2.7637    1.5782   -8.1034 H         1 <0>         0.0785
     41 H6         -2.2092    2.9307   -7.0877 H         1 <0>         0.0641
     42 H7         -3.8897   -0.5596   -5.2714 H         1 <0>         0.0787
     43 H8         -3.7450   -0.4601   -7.0427 H         1 <0>         0.0653
     44 H9         -2.2859   -0.6404   -6.0393 H         1 <0>         0.0541
     45 H10        -1.6920    2.1835   -4.7195 H         1 <0>         0.3964
     46 H11        -1.6973    2.1617   -2.3852 H         1 <0>         0.4151
     47 H12        -2.6541    1.5480    2.1670 H         1 <0>         0.1552
     48 H13        -4.5967    0.4044    3.3065 H         1 <0>         0.1829
     49 H14        -8.1984   -1.6961    0.0657 H         1 <0>         0.4165
     50 H15        -7.8397   -2.5398    2.7371 H         1 <0>         0.0797
     51 H16        -8.7449   -1.0073    2.7496 H         1 <0>         0.0787
     52 H17       -10.4346   -1.9927    1.2257 H         1 <0>         0.0952
     53 H18        -9.5295   -3.5253    1.2131 H         1 <0>         0.0997
     54 H19        -9.8335   -3.7250    3.6659 H         1 <0>         0.1482
     55 H20       -10.7386   -2.1924    3.6785 H         1 <0>         0.1461
     56 H21       -12.9873   -2.1219    2.7887 H         1 <0>         0.1581
     57 H22       -12.2390   -2.4624    1.2096 H         1 <0>         0.1751
     58 H23       -13.6345   -4.4867    0.9696 H         1 <0>         0.1560
     59 H24       -14.6593   -3.0540    1.2265 H         1 <0>         0.1754
     60 H25       -13.2451   -6.0264    2.8325 H         1 <0>         0.1559
     61 H26       -13.9932   -5.6862    4.4116 H         1 <0>         0.1758
     62 H27       -11.5733   -5.0946    4.3945 H         1 <0>         0.1760
     63 H28       -12.5979   -3.6615    4.6516 H         1 <0>         0.1573
     64 H29       -16.1918   -5.4757    3.4416 H         1 <0>         0.1362
     65 H30       -16.4440   -4.3923    2.0520 H         1 <0>         0.1361
     66 H31       -15.5063   -5.8920    1.8525 H         1 <0>         0.1328
     67 H32        -0.0624    5.5856    0.0323 H         1 <0>         0.1481
     68 H33         2.0771    4.3724    0.0058 H         1 <0>         0.1504
     69 H34         2.1069    1.9129   -0.0075 H         1 <0>         0.1482
     70 N7        -11.7151   -3.8190    2.7284 N.4       1 <0>        -0.4062
     71 H35       -11.4708   -4.5620    2.0633 H         1 <0>         0.4383
     72 N8        -14.5173   -4.3291    2.8925 N.4       1 <0>        -0.4065
     73 H36       -14.7616   -3.5860    3.5576 H         1 <0>         0.4405
@<TRIPOS>BOND
     1    1    2 1
     2    1   36 1
     3    1   37 1
     4    1   38 1
     5    2    3 1
     6    2    4 1
     7    2    5 1
     8    3   39 1
     9    3   40 1
    10    3   41 1
    11    4   42 1
    12    4   43 1
    13    4   44 1
    14    5    6 am
    15    5   45 1
    16    6    7 2
    17    6    8 am
    18    8    9 1
    19    8   46 1
    20    9   18 ar
    21    9   10 ar
    22   10   11 ar
    23   10   28 1
    24   11   12 ar
    25   11   47 1
    26   12   17 ar
    27   12   13 ar
    28   13   14 ar
    29   13   48 1
    30   14   15 ar
    31   15   16 ar
    32   15   19 1
    33   16   17 ar
    34   17   18 ar
    35   19   20 1
    36   19   49 1
    37   20   21 1
    38   20   50 1
    39   20   51 1
    40   21   22 1
    41   21   52 1
    42   21   53 1
    43   22   54 1
    44   22   55 1
    45   22   70 1
    46   23   24 1
    47   23   56 1
    48   23   57 1
    49   23   70 1
    50   24   58 1
    51   24   59 1
    52   24   72 1
    53   25   26 1
    54   25   60 1
    55   25   61 1
    56   25   72 1
    57   26   62 1
    58   26   63 1
    59   26   70 1
    60   27   64 1
    61   27   65 1
    62   27   66 1
    63   27   72 1
    64   28   33 ar
    65   28   29 ar
    66   29   30 ar
    67   29   35 1
    68   30   31 ar
    69   30   67 1
    70   31   32 ar
    71   31   68 1
    72   32   33 ar
    73   32   69 1
    74   33   34 1
    75   70   71 1
    76   72   73 1
@<TRIPOS>MOLECULE
ZINC03815299
   43    46     0     0     0
SMALL
USER_CHARGES

@<TRIPOS>ATOM
      1 C1          0.0695    1.0902    0.1128 C.3       1 <0>         0.0712
      2 N1         -0.4234    1.5836    1.4011 N.am      1 <0>        -0.5066
      3 C2         -0.5357    2.9345    1.6130 C.ar      1 <0>         0.4680
      4 C3         -1.0136    3.4263    2.8471 C.ar      1 <0>        -0.2917
      5 C4         -1.3712    2.5296    3.8797 C.2       1 <0>         0.0437
      6 C5         -1.2509    1.1835    3.6609 C.2       1 <0>        -0.1832
      7 C6         -0.7566    0.7065    2.3675 C.2       1 <0>         0.5610
      8 O1         -0.6465   -0.4896    2.1646 O.2       1 <0>        -0.5134
      9 C7         -1.6171    0.2179    4.7234 C.ar      1 <0>        -0.0012
     10 C8         -0.6581   -0.2099    5.6423 C.ar      1 <0>        -0.0075
     11 C9         -1.0070   -1.1072    6.6326 C.ar      1 <0>        -0.1079
     12 C10        -2.3015   -1.5886    6.7091 C.ar      1 <0>        -0.0914
     13 C11        -3.2558   -1.1722    5.7984 C.ar      1 <0>        -0.1081
     14 C12        -2.9211   -0.2719    4.8059 C.ar      1 <0>        -0.0074
     15 Cl1        -4.1199    0.2486    3.6632 Cl        1 <0>        -0.0501
     16 Cl2         0.9686    0.3884    5.5442 Cl        1 <0>        -0.0492
     17 C13        -1.1184    4.8145    3.0209 C.ar      1 <0>         0.2656
     18 N2         -0.7703    5.6043    2.0224 N.ar      1 <0>        -0.5606
     19 C14        -0.3288    5.1057    0.8729 C.ar      1 <0>         0.6141
     20 N3         -0.2122    3.8036    0.6621 N.ar      1 <0>        -0.6014
     21 N4          0.0221    5.9779   -0.1397 N.pl3     1 <0>        -0.6133
     22 C15        -0.1985    7.3504    0.0118 C.ar      1 <0>         0.1206
     23 C16        -1.3062    7.8023    0.7201 C.ar      1 <0>        -0.1078
     24 C17        -1.5263    9.1577    0.8769 C.ar      1 <0>        -0.1235
     25 C18        -0.6538   10.0721    0.3226 C.ar      1 <0>        -0.0830
     26 C19         0.4589    9.6289   -0.3951 C.ar      1 <0>        -0.0962
     27 C20         0.6840    8.2603   -0.5489 C.ar      1 <0>        -0.1013
     28 C21         1.3944   10.6055   -0.9900 C.2       1 <0>         0.4898
     29 O2          2.3615   10.2176   -1.6144 O.co2     1 <0>        -0.6307
     30 H1          0.0962    0.0006    0.1271 H         1 <0>         0.0981
     31 H2          1.0736    1.4760   -0.0639 H         1 <0>         0.0797
     32 H3         -0.5944    1.4270   -0.6834 H         1 <0>         0.0795
     33 H4         -1.7342    2.9008    4.8267 H         1 <0>         0.1474
     34 H5         -0.2666   -1.4366    7.3465 H         1 <0>         0.1419
     35 H6         -2.5683   -2.2930    7.4831 H         1 <0>         0.1431
     36 H7         -4.2647   -1.5521    5.8634 H         1 <0>         0.1418
     37 H8         -1.4761    5.2281    3.9523 H         1 <0>         0.1857
     38 H9          0.4216    5.6381   -0.9558 H         1 <0>         0.4250
     39 H10        -1.9951    7.0917    1.1524 H         1 <0>         0.1267
     40 H11        -2.3864    9.5026    1.4317 H         1 <0>         0.1212
     41 H12        -0.8318   11.1304    0.4436 H         1 <0>         0.1326
     42 H13         1.5427    7.9114   -1.1033 H         1 <0>         0.1297
     43 O3          1.1749   11.9261   -0.8401 O.co2     1 <0>        -0.7510
@<TRIPOS>BOND
     1    1    2 1
     2    1   30 1
     3    1   31 1
     4    1   32 1
     5    2    7 am
     6    2    3 1
     7    3   20 ar
     8    3    4 ar
     9    4    5 1
    10    4   17 ar
    11    5    6 2
    12    5   33 1
    13    6    7 1
    14    6    9 1
    15    7    8 2
    16    9   14 ar
    17    9   10 ar
    18   10   11 ar
    19   10   16 1
    20   11   12 ar
    21   11   34 1
    22   12   13 ar
    23   12   35 1
    24   13   14 ar
    25   13   36 1
    26   14   15 1
    27   17   18 ar
    28   17   37 1
    29   18   19 ar
    30   19   20 ar
    31   19   21 1
    32   21   22 1
    33   21   38 1
    34   22   27 ar
    35   22   23 ar
    36   23   24 ar
    37   23   39 1
    38   24   25 ar
    39   24   40 1
    40   25   26 ar
    41   25   41 1
    42   26   27 ar
    43   26   28 1
    44   27   42 1
    45   28   29 2
    46   28   43 1
@<TRIPOS>MOLECULE
ZINC03815302
   44    47     0     0     0
SMALL
USER_CHARGES

@<TRIPOS>ATOM
      1 C1         -0.2303    0.9301    0.1276 C.3       1 <0>        -0.1625
      2 C2         -0.7905    1.6082    1.3795 C.3       1 <0>         0.0973
      3 N1         -2.1926    1.2228    1.5577 N.am      1 <0>        -0.5029
      4 C3         -3.1832    1.9813    0.9868 C.ar      1 <0>         0.4682
      5 C4         -4.5390    1.6210    1.1448 C.ar      1 <0>        -0.2780
      6 C5         -4.8881    0.4799    1.9026 C.2       1 <0>         0.0304
      7 C6         -3.8931   -0.2679    2.4729 C.2       1 <0>        -0.1647
      8 C7         -2.4965    0.1305    2.2849 C.2       1 <0>         0.5579
      9 O1         -1.6050   -0.5294    2.7885 O.2       1 <0>        -0.5013
     10 C8         -4.2264   -1.4693    3.2733 C.ar      1 <0>        -0.0096
     11 C9         -4.4384   -1.3586    4.6481 C.ar      1 <0>        -0.0066
     12 C10        -4.7549   -2.4814    5.3875 C.ar      1 <0>        -0.1065
     13 C11        -4.8501   -3.7156    4.7701 C.ar      1 <0>        -0.0876
     14 C12        -4.6351   -3.8332    3.4087 C.ar      1 <0>        -0.1065
     15 C13        -4.3240   -2.7172    2.6567 C.ar      1 <0>        -0.0066
     16 Cl1        -4.0545   -2.8669    0.9483 Cl        1 <0>        -0.0503
     17 Cl2        -4.3117    0.1881    5.4261 Cl        1 <0>        -0.0503
     18 C14        -5.5207    2.4204    0.5401 C.ar      1 <0>         0.2637
     19 N2         -5.1367    3.4741   -0.1560 N.ar      1 <0>        -0.5676
     20 C15        -3.8507    3.7801   -0.2875 C.ar      1 <0>         0.6082
     21 N3         -2.8888    3.0566    0.2647 N.ar      1 <0>        -0.5949
     22 N4         -3.5041    4.8945   -1.0272 N.pl3     1 <0>        -0.6264
     23 C16        -4.4879    5.6099   -1.7162 C.ar      1 <0>         0.1548
     24 C17        -5.5746    4.9439   -2.2683 C.ar      1 <0>        -0.1097
     25 C18        -6.5475    5.6543   -2.9437 C.ar      1 <0>        -0.1006
     26 C19        -6.4352    7.0259   -3.0796 C.ar      1 <0>        -0.1329
     27 C20        -5.3517    7.6914   -2.5360 C.ar      1 <0>        -0.0995
     28 C21        -4.3780    6.9877   -1.8549 C.ar      1 <0>        -0.1438
     29 H1         -0.2982   -0.1520    0.2393 H         1 <0>         0.0607
     30 H2          0.8129    1.2169   -0.0049 H         1 <0>         0.0770
     31 H3         -0.8064    1.2424   -0.7434 H         1 <0>         0.0596
     32 H4         -0.2143    1.2960    2.2505 H         1 <0>         0.0978
     33 H5         -0.7225    2.6904    1.2679 H         1 <0>         0.1007
     34 H6         -5.9240    0.2021    2.0295 H         1 <0>         0.1500
     35 H7         -4.9243   -2.3963    6.4507 H         1 <0>         0.1437
     36 H8         -5.0931   -4.5913    5.3536 H         1 <0>         0.1453
     37 H9         -4.7109   -4.7997    2.9327 H         1 <0>         0.1436
     38 H10        -6.5683    2.1789    0.6423 H         1 <0>         0.1876
     39 H11        -2.5781    5.1804   -1.0685 H         1 <0>         0.4261
     40 H12        -5.6608    3.8722   -2.1661 H         1 <0>         0.1341
     41 H13        -7.3948    5.1376   -3.3698 H         1 <0>         0.1261
     42 H14        -7.1953    7.5786   -3.6118 H         1 <0>         0.1238
     43 H15        -5.2670    8.7626   -2.6439 H         1 <0>         0.1269
     44 H16        -3.5319    7.5079   -1.4309 H         1 <0>         0.1250
@<TRIPOS>BOND
     1    1    2 1
     2    1   29 1
     3    1   30 1
     4    1   31 1
     5    2    3 1
     6    2   32 1
     7    2   33 1
     8    3    8 am
     9    3    4 1
    10    4   21 ar
    11    4    5 ar
    12    5    6 1
    13    5   18 ar
    14    6    7 2
    15    6   34 1
    16    7    8 1
    17    7   10 1
    18    8    9 2
    19   10   15 ar
    20   10   11 ar
    21   11   12 ar
    22   11   17 1
    23   12   13 ar
    24   12   35 1
    25   13   14 ar
    26   13   36 1
    27   14   15 ar
    28   14   37 1
    29   15   16 1
    30   18   19 ar
    31   18   38 1
    32   19   20 ar
    33   20   21 ar
    34   20   22 1
    35   22   23 1
    36   22   39 1
    37   23   28 ar
    38   23   24 ar
    39   24   25 ar
    40   24   40 1
    41   25   26 ar
    42   25   41 1
    43   26   27 ar
    44   26   42 1
    45   27   28 ar
    46   27   43 1
    47   28   44 1
@<TRIPOS>MOLECULE
ZINC03815307
   62    65     0     0     0
SMALL
USER_CHARGES

@<TRIPOS>ATOM
      1 C1         -2.2664    2.6406    5.7207 C.3       1 <0>         0.0696
      2 N1         -1.0652    1.8152    5.8687 N.am      1 <0>        -0.5066
      3 C2         -0.4094    1.3640    4.7512 C.ar      1 <0>         0.4682
      4 C3          0.7497    0.5679    4.8763 C.ar      1 <0>        -0.2690
      5 C4          1.2453    0.2291    6.1562 C.2       1 <0>         0.0178
      6 C5          0.5843    0.6839    7.2655 C.2       1 <0>        -0.1458
      7 C6         -0.6156    1.5073    7.1005 C.2       1 <0>         0.5529
      8 O1         -1.2098    1.9161    8.0821 O.2       1 <0>        -0.4897
      9 C7          1.0781    0.3458    8.6209 C.ar      1 <0>        -0.0200
     10 C8          0.6245   -0.8061    9.2648 C.ar      1 <0>        -0.0056
     11 C9          1.0925   -1.1181   10.5262 C.ar      1 <0>        -0.1044
     12 C10         2.0012   -0.2863   11.1554 C.ar      1 <0>        -0.0827
     13 C11         2.4509    0.8598   10.5247 C.ar      1 <0>        -0.1045
     14 C12         1.9945    1.1808    9.2613 C.ar      1 <0>        -0.0056
     15 Cl1         2.5591    2.6202    8.4720 Cl        1 <0>        -0.0520
     16 Cl2        -0.5209   -1.8478    8.4796 Cl        1 <0>        -0.0516
     17 C13         1.3899    0.1267    3.7087 C.ar      1 <0>         0.2644
     18 N2          0.8797    0.4693    2.5405 N.ar      1 <0>        -0.5871
     19 C14        -0.2103    1.2245    2.4609 C.ar      1 <0>         0.6055
     20 N3         -0.8488    1.6644    3.5342 N.ar      1 <0>        -0.5994
     21 N4         -0.6984    1.5583    1.2133 N.pl3     1 <0>        -0.6990
     22 C15        -0.0127    1.0858    0.0080 C.3       1 <0>         0.1395
     23 C16        -0.7527    1.5927   -1.2315 C.3       1 <0>        -0.1350
     24 C17        -0.0366    1.0992   -2.4903 C.3       1 <0>        -0.1464
     25 C18        -0.7766    1.6061   -3.7298 C.3       1 <0>        -0.0067
     26 C19         1.2439    1.7395   -5.0583 C.3       1 <0>        -0.0328
     27 C20         1.9566    1.1616   -6.2833 C.3       1 <0>        -0.0263
     28 C21        -0.1814    0.8170   -7.3645 C.3       1 <0>        -0.0268
     29 C22        -0.8941    1.3949   -6.1395 C.3       1 <0>        -0.0263
     30 C23         1.8391    0.9504   -8.6929 C.3       1 <0>        -0.0462
     31 H1         -3.1464    1.9984    5.6843 H         1 <0>         0.0755
     32 H2         -2.3472    3.3201    6.5692 H         1 <0>         0.0946
     33 H3         -2.1993    3.2176    4.7983 H         1 <0>         0.0932
     34 H4          2.1320   -0.3790    6.2574 H         1 <0>         0.1521
     35 H5          0.7451   -2.0112   11.0242 H         1 <0>         0.1460
     36 H6          2.3610   -0.5326   12.1435 H         1 <0>         0.1484
     37 H7          3.1601    1.5053   11.0215 H         1 <0>         0.1460
     38 H8          2.2790   -0.4839    3.7644 H         1 <0>         0.1871
     39 H9         -1.4954    2.1056    1.1349 H         1 <0>         0.4172
     40 H10         0.0021   -0.0041    0.0020 H         1 <0>         0.0738
     41 H11         1.0099    1.4631    0.0003 H         1 <0>         0.0726
     42 H12        -1.7753    1.2154   -1.2238 H         1 <0>         0.0865
     43 H13        -0.7675    2.6825   -1.2255 H         1 <0>         0.0853
     44 H14         0.9860    1.4765   -2.4981 H         1 <0>         0.0923
     45 H15        -0.0218    0.0093   -2.4963 H         1 <0>         0.0968
     46 H16        -1.7991    1.2288   -3.7221 H         1 <0>         0.1442
     47 H17        -0.7913    2.6960   -3.7239 H         1 <0>         0.1421
     48 H18         1.1429    2.8189   -5.1719 H         1 <0>         0.1570
     49 H19         1.8251    1.5206   -4.1625 H         1 <0>         0.1757
     50 H20         2.0818    0.0862   -6.1574 H         1 <0>         0.1561
     51 H21         2.9341    1.6318   -6.3908 H         1 <0>         0.1754
     52 H22        -0.0804   -0.2624   -7.2509 H         1 <0>         0.1559
     53 H23        -0.7628    1.0356   -8.2602 H         1 <0>         0.1755
     54 H24        -1.8715    0.9247   -6.0320 H         1 <0>         0.1750
     55 H25        -1.0193    2.4703   -6.2654 H         1 <0>         0.1563
     56 H26         1.2531    1.2172   -9.5725 H         1 <0>         0.1362
     57 H27         2.8229    1.4153   -8.7571 H         1 <0>         0.1363
     58 H28         1.9514   -0.1327   -8.6461 H         1 <0>         0.1329
     59 N5         -0.0853    1.1047   -4.9368 N.4       1 <0>        -0.4066
     60 H29         0.0365    0.0886   -4.8536 H         1 <0>         0.4382
     61 N6          1.1480    1.4519   -7.4859 N.4       1 <0>        -0.4066
     62 H30         1.0263    2.4680   -7.5691 H         1 <0>         0.4405
@<TRIPOS>BOND
     1    1    2 1
     2    1   31 1
     3    1   32 1
     4    1   33 1
     5    2    7 am
     6    2    3 1
     7    3   20 ar
     8    3    4 ar
     9    4    5 1
    10    4   17 ar
    11    5    6 2
    12    5   34 1
    13    6    7 1
    14    6    9 1
    15    7    8 2
    16    9   14 ar
    17    9   10 ar
    18   10   11 ar
    19   10   16 1
    20   11   12 ar
    21   11   35 1
    22   12   13 ar
    23   12   36 1
    24   13   14 ar
    25   13   37 1
    26   14   15 1
    27   17   18 ar
    28   17   38 1
    29   18   19 ar
    30   19   20 ar
    31   19   21 1
    32   21   22 1
    33   21   39 1
    34   22   23 1
    35   22   40 1
    36   22   41 1
    37   23   24 1
    38   23   42 1
    39   23   43 1
    40   24   25 1
    41   24   44 1
    42   24   45 1
    43   25   46 1
    44   25   47 1
    45   25   59 1
    46   26   27 1
    47   26   48 1
    48   26   49 1
    49   26   59 1
    50   27   50 1
    51   27   51 1
    52   27   61 1
    53   28   29 1
    54   28   52 1
    55   28   53 1
    56   28   61 1
    57   29   54 1
    58   29   55 1
    59   29   59 1
    60   30   56 1
    61   30   57 1
    62   30   58 1
    63   30   61 1
    64   59   60 1
    65   61   62 1
@<TRIPOS>MOLECULE
ZINC03815308
   46    49     0     0     0
SMALL
USER_CHARGES

@<TRIPOS>ATOM
      1 C1         -9.4546   -4.6479   -0.9492 C.3       1 <0>         0.0715
      2 N1         -8.9344   -4.1755   -2.2347 N.am      1 <0>        -0.5064
      3 C2         -7.8393   -3.3493   -2.2619 C.ar      1 <0>         0.4677
      4 C3         -7.3255   -2.8851   -3.4921 C.ar      1 <0>        -0.2900
      5 C4         -7.9362   -3.2683   -4.7080 C.2       1 <0>         0.0423
      6 C5         -9.0282   -4.0933   -4.6711 C.2       1 <0>        -0.1814
      7 C6         -9.5359   -4.5568   -3.3779 C.2       1 <0>         0.5599
      8 O1        -10.5068   -5.2913   -3.3361 O.2       1 <0>        -0.5115
      9 C7         -9.6908   -4.5129   -5.9281 C.ar      1 <0>        -0.0020
     10 C8        -10.7328   -3.7517   -6.4589 C.ar      1 <0>        -0.0073
     11 C9        -11.3436   -4.1463   -7.6331 C.ar      1 <0>        -0.1077
     12 C10       -10.9306   -5.2984   -8.2778 C.ar      1 <0>        -0.0910
     13 C11        -9.9015   -6.0601   -7.7544 C.ar      1 <0>        -0.1080
     14 C12        -9.2793   -5.6743   -6.5832 C.ar      1 <0>        -0.0074
     15 Cl1        -7.9887   -6.6323   -5.9273 Cl        1 <0>        -0.0503
     16 Cl2       -11.2566   -2.3087   -5.6482 Cl        1 <0>        -0.0491
     17 C13        -6.2039   -2.0424   -3.4758 C.ar      1 <0>         0.2662
     18 N2         -5.6746   -1.7178   -2.3111 N.ar      1 <0>        -0.5604
     19 C14        -6.1852   -2.1737   -1.1726 C.ar      1 <0>         0.6130
     20 N3         -7.2389   -2.9749   -1.1378 N.ar      1 <0>        -0.6033
     21 N4         -5.5914   -1.8029    0.0188 N.pl3     1 <0>        -0.6143
     22 C15        -4.5481   -0.8724    0.0199 C.ar      1 <0>         0.1193
     23 C16        -4.5383    0.1635   -0.9055 C.ar      1 <0>        -0.1003
     24 C17        -3.5058    1.0807   -0.9019 C.ar      1 <0>        -0.0981
     25 C18        -2.4826    0.9687    0.0215 C.ar      1 <0>        -0.0327
     26 C19        -2.4865   -0.0644    0.9407 C.ar      1 <0>        -0.0977
     27 C20        -3.5187   -0.9820    0.9460 C.ar      1 <0>        -0.1342
     28 C21        -1.3573    1.9712    0.0221 C.3       1 <0>        -0.1322
     29 C22        -1.7105    3.1223    0.9283 C.2       1 <0>         0.4652
     30 O2         -2.7675    3.1280    1.5137 O.co2     1 <0>        -0.6307
     31 H1        -10.2009   -3.9451   -0.5788 H         1 <0>         0.0728
     32 H2         -9.9125   -5.6283   -1.0808 H         1 <0>         0.0895
     33 H3         -8.6374   -4.7219   -0.2317 H         1 <0>         0.0949
     34 H4         -7.5472   -2.9157   -5.6518 H         1 <0>         0.1479
     35 H5        -12.1478   -3.5560   -8.0470 H         1 <0>         0.1421
     36 H6        -11.4141   -5.6047   -9.1937 H         1 <0>         0.1433
     37 H7         -9.5840   -6.9588   -8.2624 H         1 <0>         0.1419
     38 H8         -5.7824   -1.6676   -4.3968 H         1 <0>         0.1862
     39 H9         -5.8986   -2.1882    0.8543 H         1 <0>         0.4233
     40 H10        -5.3369    0.2513   -1.6271 H         1 <0>         0.1278
     41 H11        -3.4978    1.8866   -1.6209 H         1 <0>         0.1208
     42 H12        -1.6836   -0.1516    1.6577 H         1 <0>         0.1218
     43 H13        -3.5235   -1.7860    1.6671 H         1 <0>         0.1187
     44 H14        -1.2000    2.3414   -0.9910 H         1 <0>         0.0765
     45 H15        -0.4453    1.4935    0.3800 H         1 <0>         0.0760
     46 O3         -0.8485    4.1385    1.0896 O.co2     1 <0>        -0.7725
@<TRIPOS>BOND
     1    1    2 1
     2    1   31 1
     3    1   32 1
     4    1   33 1
     5    2    7 am
     6    2    3 1
     7    3   20 ar
     8    3    4 ar
     9    4    5 1
    10    4   17 ar
    11    5    6 2
    12    5   34 1
    13    6    7 1
    14    6    9 1
    15    7    8 2
    16    9   14 ar
    17    9   10 ar
    18   10   11 ar
    19   10   16 1
    20   11   12 ar
    21   11   35 1
    22   12   13 ar
    23   12   36 1
    24   13   14 ar
    25   13   37 1
    26   14   15 1
    27   17   18 ar
    28   17   38 1
    29   18   19 ar
    30   19   20 ar
    31   19   21 1
    32   21   22 1
    33   21   39 1
    34   22   27 ar
    35   22   23 ar
    36   23   24 ar
    37   23   40 1
    38   24   25 ar
    39   24   41 1
    40   25   26 ar
    41   25   28 1
    42   26   27 ar
    43   26   42 1
    44   27   43 1
    45   28   29 1
    46   28   44 1
    47   28   45 1
    48   29   30 2
    49   29   46 1
@<TRIPOS>MOLECULE
ZINC03815309
   45    48     0     0     0
SMALL
USER_CHARGES

@<TRIPOS>ATOM
      1 C1          2.0709    8.2772    0.4276 C.3       1 <0>         0.0701
      2 N1          3.3654    7.5914    0.4148 N.am      1 <0>        -0.5061
      3 C2          3.4085    6.2243    0.3059 C.ar      1 <0>         0.4674
      4 C3          4.6476    5.5480    0.2920 C.ar      1 <0>        -0.2786
      5 C4          5.8559    6.2749    0.3904 C.2       1 <0>         0.0317
      6 C5          5.8030    7.6388    0.4983 C.2       1 <0>        -0.1655
      7 C6          4.5011    8.3093    0.5096 C.2       1 <0>         0.5571
      8 O1          4.4450    9.5224    0.6049 O.2       1 <0>        -0.5021
      9 C7          7.0517    8.4293    0.6026 C.ar      1 <0>        -0.0096
     10 C8          7.5999    8.7114    1.8545 C.ar      1 <0>        -0.0065
     11 C9          8.7669    9.4447    1.9445 C.ar      1 <0>        -0.1065
     12 C10         9.3865    9.9078    0.7978 C.ar      1 <0>        -0.0876
     13 C11         8.8455    9.6361   -0.4460 C.ar      1 <0>        -0.1065
     14 C12         7.6816    8.8998   -0.5502 C.ar      1 <0>        -0.0066
     15 Cl1         7.0036    8.5609   -2.1120 Cl        1 <0>        -0.0504
     16 Cl2         6.8202    8.1368    3.2951 Cl        1 <0>        -0.0501
     17 C13         4.6477    4.1496    0.1787 C.ar      1 <0>         0.2652
     18 N2          3.4895    3.5229    0.0897 N.ar      1 <0>        -0.5689
     19 C14         2.3421    4.1926    0.1060 C.ar      1 <0>         0.6089
     20 N3          2.2918    5.5122    0.2062 N.ar      1 <0>        -0.5976
     21 N4          1.1585    3.4870    0.0093 N.pl3     1 <0>        -0.6231
     22 C15         1.1757    2.0869    0.0133 C.ar      1 <0>         0.1171
     23 C16         2.1234    1.4060    0.7660 C.ar      1 <0>        -0.0674
     24 C17         2.1394    0.0252    0.7698 C.ar      1 <0>        -0.1319
     25 C18         1.2089   -0.6817    0.0223 C.ar      1 <0>         0.1168
     26 C19         0.2619   -0.0022   -0.7299 C.ar      1 <0>        -0.1885
     27 C20         0.2448    1.3786   -0.7351 C.ar      1 <0>        -0.1008
     28 O2          1.2253   -2.0414    0.0266 O.3       1 <0>        -0.3168
     29 C21         0.2382   -2.7046   -0.7658 C.3       1 <0>         0.0262
     30 H1          1.7162    8.3647    1.4546 H         1 <0>         0.0744
     31 H2          2.1823    9.2718   -0.0042 H         1 <0>         0.0919
     32 H3          1.3510    7.7055   -0.1580 H         1 <0>         0.0949
     33 H4          6.8065    5.7624    0.3799 H         1 <0>         0.1503
     34 H5          9.1942    9.6606    2.9126 H         1 <0>         0.1437
     35 H6         10.2966   10.4843    0.8739 H         1 <0>         0.1453
     36 H7          9.3340   10.0009   -1.3374 H         1 <0>         0.1436
     37 H8          5.5758    3.5975    0.1643 H         1 <0>         0.1882
     38 H9          0.3154    3.9615   -0.0615 H         1 <0>         0.4259
     39 H10         2.8449    1.9561    1.3519 H         1 <0>         0.1418
     40 H11         2.8763   -0.5046    1.3552 H         1 <0>         0.1357
     41 H12        -0.4620   -0.5533   -1.3119 H         1 <0>         0.1330
     42 H13        -0.4923    1.9074   -1.3211 H         1 <0>         0.1289
     43 H14        -0.7558   -2.4226   -0.4188 H         1 <0>         0.0559
     44 H15         0.3547   -2.4136   -1.8098 H         1 <0>         0.0560
     45 H16         0.3629   -3.7835   -0.6733 H         1 <0>         0.1010
@<TRIPOS>BOND
     1    1    2 1
     2    1   30 1
     3    1   31 1
     4    1   32 1
     5    2    7 am
     6    2    3 1
     7    3   20 ar
     8    3    4 ar
     9    4    5 1
    10    4   17 ar
    11    5    6 2
    12    5   33 1
    13    6    7 1
    14    6    9 1
    15    7    8 2
    16    9   14 ar
    17    9   10 ar
    18   10   11 ar
    19   10   16 1
    20   11   12 ar
    21   11   34 1
    22   12   13 ar
    23   12   35 1
    24   13   14 ar
    25   13   36 1
    26   14   15 1
    27   17   18 ar
    28   17   37 1
    29   18   19 ar
    30   19   20 ar
    31   19   21 1
    32   21   22 1
    33   21   38 1
    34   22   27 ar
    35   22   23 ar
    36   23   24 ar
    37   23   39 1
    38   24   25 ar
    39   24   40 1
    40   25   26 ar
    41   25   28 1
    42   26   27 ar
    43   26   41 1
    44   27   42 1
    45   28   29 1
    46   29   43 1
    47   29   44 1
    48   29   45 1
@<TRIPOS>MOLECULE
ZINC03815350
   43    46     0     0     0
SMALL
USER_CHARGES

@<TRIPOS>ATOM
      1 C1         -4.1948    2.7952    1.5249 C.3       1 <0>        -0.1629
      2 C2         -3.6608    3.2387    0.1614 C.3       1 <0>         0.0967
      3 N1         -2.4147    3.9870    0.3449 N.am      1 <0>        -0.5025
      4 C3         -1.2157    3.3200    0.3436 C.ar      1 <0>         0.4674
      5 C4         -0.0058    4.0261    0.5186 C.ar      1 <0>        -0.2723
      6 C5         -0.0199    5.4284    0.6969 C.2       1 <0>         0.0275
      7 C6         -1.2211    6.0853    0.6968 C.2       1 <0>        -0.1599
      8 C7         -2.4578    5.3227    0.5127 C.2       1 <0>         0.5573
      9 O1         -3.5308    5.8994    0.5108 O.2       1 <0>        -0.4989
     10 C8         -1.2695    7.5545    0.8818 C.ar      1 <0>        -0.0115
     11 C9         -1.3816    8.0962    2.1629 C.ar      1 <0>        -0.0063
     12 C10        -1.4214    9.4667    2.3288 C.ar      1 <0>        -0.1063
     13 C11        -1.3609   10.3018    1.2276 C.ar      1 <0>        -0.0868
     14 C12        -1.2551    9.7711   -0.0454 C.ar      1 <0>        -0.1062
     15 C13        -1.2090    8.4025   -0.2248 C.ar      1 <0>        -0.0063
     16 Cl1        -1.0766    7.7385   -1.8233 Cl        1 <0>        -0.0501
     17 Cl2        -1.4649    7.0498    3.5456 Cl        1 <0>        -0.0502
     18 C14         1.1983    3.3063    0.5105 C.ar      1 <0>         0.2640
     19 N2          1.1513    1.9983    0.3395 N.ar      1 <0>        -0.5681
     20 C15        -0.0062    1.3671    0.1777 C.ar      1 <0>         0.6071
     21 N3         -1.1672    2.0036    0.1731 N.ar      1 <0>        -0.5905
     22 N4          0.0021   -0.0041    0.0020 N.pl3     1 <0>        -0.6250
     23 C16         1.2127   -0.6839   -0.1184 C.ar      1 <0>         0.2033
     24 C17         2.3106   -0.0859   -0.7361 C.ar      1 <0>        -0.1666
     25 C18         3.4921   -0.7909   -0.8314 C.ar      1 <0>         0.1182
     26 N5          3.5878   -2.0184   -0.3559 N.ar      1 <0>        -0.4968
     27 C19         2.5705   -2.6203    0.2311 C.ar      1 <0>         0.1208
     28 C20         1.3559   -1.9820    0.3705 C.ar      1 <0>        -0.2011
     29 H1         -4.3854    3.6723    2.1432 H         1 <0>         0.0611
     30 H2         -5.1219    2.2385    1.3884 H         1 <0>         0.0777
     31 H3         -3.4576    2.1588    2.0143 H         1 <0>         0.0593
     32 H4         -4.3980    3.8751   -0.3281 H         1 <0>         0.0987
     33 H5         -3.4702    2.3616   -0.4570 H         1 <0>         0.1011
     34 H6          0.9028    5.9732    0.8316 H         1 <0>         0.1514
     35 H7         -1.5040    9.8874    3.3201 H         1 <0>         0.1440
     36 H8         -1.3970   11.3727    1.3624 H         1 <0>         0.1457
     37 H9         -1.2080   10.4286   -0.9010 H         1 <0>         0.1440
     38 H10         2.1438    3.8117    0.6409 H         1 <0>         0.1897
     39 H11        -0.8347   -0.4930   -0.0374 H         1 <0>         0.4294
     40 H12         2.2377    0.9167   -1.1311 H         1 <0>         0.1459
     41 H13         4.3487   -0.3343   -1.3049 H         1 <0>         0.1595
     42 H14         2.6905   -3.6258    0.6068 H         1 <0>         0.1604
     43 H15         0.5272   -2.4805    0.8513 H         1 <0>         0.1378
@<TRIPOS>BOND
     1    1    2 1
     2    1   29 1
     3    1   30 1
     4    1   31 1
     5    2    3 1
     6    2   32 1
     7    2   33 1
     8    3    8 am
     9    3    4 1
    10    4   21 ar
    11    4    5 ar
    12    5    6 1
    13    5   18 ar
    14    6    7 2
    15    6   34 1
    16    7    8 1
    17    7   10 1
    18    8    9 2
    19   10   15 ar
    20   10   11 ar
    21   11   12 ar
    22   11   17 1
    23   12   13 ar
    24   12   35 1
    25   13   14 ar
    26   13   36 1
    27   14   15 ar
    28   14   37 1
    29   15   16 1
    30   18   19 ar
    31   18   38 1
    32   19   20 ar
    33   20   21 ar
    34   20   22 1
    35   22   23 1
    36   22   39 1
    37   23   28 ar
    38   23   24 ar
    39   24   25 ar
    40   24   40 1
    41   25   26 ar
    42   25   41 1
    43   26   27 ar
    44   27   28 ar
    45   27   42 1
    46   28   43 1
@<TRIPOS>MOLECULE
ZINC03815354
   40    43     0     0     0
SMALL
USER_CHARGES

@<TRIPOS>ATOM
      1 C1         -5.9264    7.2257    0.5000 C.3       1 <0>         0.0695
      2 N1         -4.6527    7.9495    0.4955 N.am      1 <0>        -0.5056
      3 C2         -3.4763    7.2531    0.3779 C.ar      1 <0>         0.4670
      4 C3         -2.2404    7.9352    0.3714 C.ar      1 <0>        -0.2742
      5 C4         -2.2047    9.3438    0.4855 C.2       1 <0>         0.0289
      6 C5         -3.3835   10.0302    0.6024 C.2       1 <0>        -0.1611
      7 C6         -4.6483    9.2918    0.6063 C.2       1 <0>         0.5565
      8 O1         -5.7017    9.8947    0.7098 O.2       1 <0>        -0.4997
      9 C7         -3.3797   11.5068    0.7242 C.ar      1 <0>        -0.0113
     10 C8         -3.3221   12.1058    1.9832 C.ar      1 <0>        -0.0062
     11 C9         -3.3150   13.4828    2.0897 C.ar      1 <0>        -0.1063
     12 C10        -3.3740   14.2678    0.9522 C.ar      1 <0>        -0.0869
     13 C11        -3.4362   13.6803   -0.2985 C.ar      1 <0>        -0.1062
     14 C12        -3.4396   12.3044   -0.4191 C.ar      1 <0>        -0.0064
     15 Cl1        -3.5188   11.5691   -1.9897 Cl        1 <0>        -0.0500
     16 Cl2        -3.2539   11.1224    3.4122 Cl        1 <0>        -0.0503
     17 C13        -1.0608    7.1856    0.2498 C.ar      1 <0>         0.2651
     18 N2         -1.1539    5.8727    0.1514 N.ar      1 <0>        -0.5719
     19 C14        -2.3352    5.2648    0.1562 C.ar      1 <0>         0.6081
     20 N3         -3.4750    5.9293    0.2688 N.ar      1 <0>        -0.5935
     21 N4         -2.3756    3.8881    0.0453 N.pl3     1 <0>        -0.6216
     22 C15        -1.1869    3.1518    0.0415 C.ar      1 <0>         0.1068
     23 C16        -0.0915    3.5739    0.7916 C.ar      1 <0>        -0.0682
     24 C17         1.0655    2.8137    0.7515 C.ar      1 <0>        -0.1505
     25 C18         1.0920    1.6641   -0.0164 C.ar      1 <0>         0.0826
     26 N5          0.0360    1.2886   -0.7111 N.ar      1 <0>        -0.4637
     27 C19        -1.0828    1.9855   -0.7054 C.ar      1 <0>         0.0800
     28 H1         -6.1903    6.9613    1.5240 H         1 <0>         0.0751
     29 H2         -6.7056    7.8590    0.0759 H         1 <0>         0.0928
     30 H3         -5.8309    6.3184   -0.0964 H         1 <0>         0.0953
     31 H4         -1.2619    9.8705    0.4803 H         1 <0>         0.1513
     32 H5         -3.2666   13.9478    3.0633 H         1 <0>         0.1440
     33 H6         -3.3720   15.3441    1.0411 H         1 <0>         0.1457
     34 H7         -3.4825   14.2988   -1.1827 H         1 <0>         0.1441
     35 H8         -0.0966    7.6721    0.2413 H         1 <0>         0.1891
     36 H9         -3.2286    3.4324   -0.0299 H         1 <0>         0.4294
     37 H10        -0.1419    4.4740    1.3863 H         1 <0>         0.1461
     38 H11         1.9356    3.1130    1.3170 H         1 <0>         0.1401
     39 H12         1.9904    1.0654   -0.0479 H         1 <0>         0.1592
     40 H13        -1.9271    1.6460   -1.2870 H         1 <0>         0.1572
@<TRIPOS>BOND
     1    1    2 1
     2    1   28 1
     3    1   29 1
     4    1   30 1
     5    2    7 am
     6    2    3 1
     7    3   20 ar
     8    3    4 ar
     9    4    5 1
    10    4   17 ar
    11    5    6 2
    12    5   31 1
    13    6    7 1
    14    6    9 1
    15    7    8 2
    16    9   14 ar
    17    9   10 ar
    18   10   11 ar
    19   10   16 1
    20   11   12 ar
    21   11   32 1
    22   12   13 ar
    23   12   33 1
    24   13   14 ar
    25   13   34 1
    26   14   15 1
    27   17   18 ar
    28   17   35 1
    29   18   19 ar
    30   19   20 ar
    31   19   21 1
    32   21   22 1
    33   21   36 1
    34   22   27 ar
    35   22   23 ar
    36   23   24 ar
    37   23   37 1
    38   24   25 ar
    39   24   38 1
    40   25   26 ar
    41   25   39 1
    42   26   27 ar
    43   27   40 1
@<TRIPOS>MOLECULE
ZINC03815368
   51    53     0     0     0
SMALL
USER_CHARGES

@<TRIPOS>ATOM
      1 C1          4.7452    4.1433    2.4915 C.3       1 <0>        -0.1183
      2 C2          5.3689    4.5451    1.1798 C.ar      1 <0>        -0.0599
      3 C3          6.5375    5.2792    1.1660 C.ar      1 <0>        -0.1258
      4 C4          7.1078    5.6539   -0.0372 C.ar      1 <0>        -0.1015
      5 C5          6.5144    5.2909   -1.2329 C.ar      1 <0>        -0.1257
      6 C6          5.3491    4.5516   -1.2314 C.ar      1 <0>        -0.0598
      7 C7          4.7698    4.1711   -0.0220 C.ar      1 <0>        -0.0609
      8 C8          3.5179    3.3767   -0.0138 C.ar      1 <0>        -0.1501
      9 C9          3.5691    1.9916   -0.0217 C.ar      1 <0>         0.0324
     10 C10         2.3540    1.2879   -0.0135 C.ar      1 <0>        -0.2938
     11 C11         2.3093   -0.1169   -0.0206 C.ar      1 <0>         0.2630
     12 N1          1.1319   -0.7082   -0.0125 N.ar      1 <0>        -0.5712
     13 C12         0.0021   -0.0041    0.0020 C.ar      1 <0>         0.5940
     14 N2         -0.0158    1.3152    0.0093 N.ar      1 <0>        -0.5641
     15 C13         1.1302    2.0077    0.0020 C.ar      1 <0>         0.4256
     16 N3          1.1376    3.3417    0.0087 N.ar      1 <0>        -0.4765
     17 C14         2.2646    4.0243    0.0012 C.ar      1 <0>         0.4710
     18 N4          2.2178    5.4108    0.0086 N.am      1 <0>        -0.6598
     19 C15         1.0286    6.0449    0.0233 C.2       1 <0>         0.6903
     20 O1         -0.0031    5.4018    0.0301 O.2       1 <0>        -0.5047
     21 N5          0.9831    7.3918    0.0305 N.am      1 <0>        -0.7358
     22 C16        -0.3096    8.0810    0.0465 C.3       1 <0>         0.1880
     23 C17        -1.0868    7.6782    1.3014 C.3       1 <0>        -0.1660
     24 C18        -0.0809    9.5938    0.0519 C.3       1 <0>        -0.1554
     25 C19        -1.1110    7.6908   -1.1969 C.3       1 <0>        -0.1660
     26 N6         -1.2015   -0.6829    0.0094 N.pl3     1 <0>        -0.8116
     27 C20         4.7044    4.1560   -2.5348 C.3       1 <0>        -0.1193
     28 H1          5.1451    3.1785    2.8036 H         1 <0>         0.0748
     29 H2          4.9749    4.8937    3.2480 H         1 <0>         0.0694
     30 H3          3.6645    4.0671    2.3717 H         1 <0>         0.0636
     31 H4          7.0053    5.5651    2.0965 H         1 <0>         0.1253
     32 H5          8.0197    6.2325   -0.0432 H         1 <0>         0.1248
     33 H6          6.9641    5.5863   -2.1693 H         1 <0>         0.1253
     34 H7          4.5145    1.4696   -0.0332 H         1 <0>         0.1502
     35 H8          3.2193   -0.6983   -0.0320 H         1 <0>         0.1798
     36 H9          3.0410    5.9239    0.0032 H         1 <0>         0.4149
     37 H10         1.8063    7.9050    0.0251 H         1 <0>         0.3940
     38 H11        -0.5158    7.9563    2.1873 H         1 <0>         0.0525
     39 H12        -2.0485    8.1910    1.3133 H         1 <0>         0.0639
     40 H13        -1.2496    6.6005    1.2976 H         1 <0>         0.0815
     41 H14         0.4728    9.8808   -0.8421 H         1 <0>         0.0622
     42 H15        -1.0427   10.1066    0.0638 H         1 <0>         0.0765
     43 H16         0.4900    9.8719    0.9378 H         1 <0>         0.0622
     44 H17        -1.2739    6.6130   -1.2008 H         1 <0>         0.0815
     45 H18        -2.0728    8.2036   -1.1850 H         1 <0>         0.0639
     46 H19        -0.5573    7.9777   -2.0909 H         1 <0>         0.0525
     47 H20        -2.0366   -0.1895    0.0197 H         1 <0>         0.4182
     48 H21        -1.2113   -1.6529    0.0042 H         1 <0>         0.4167
     49 H22         3.9981    4.9282   -2.8399 H         1 <0>         0.0705
     50 H23         5.4720    4.0428   -3.3003 H         1 <0>         0.0707
     51 H24         4.1766    3.2109   -2.4070 H         1 <0>         0.0672
@<TRIPOS>BOND
     1    1    2 1
     2    1   28 1
     3    1   29 1
     4    1   30 1
     5    2    7 ar
     6    2    3 ar
     7    3    4 ar
     8    3   31 1
     9    4    5 ar
    10    4   32 1
    11    5    6 ar
    12    5   33 1
    13    6    7 ar
    14    6   27 1
    15    7    8 1
    16    8   17 ar
    17    8    9 ar
    18    9   10 ar
    19    9   34 1
    20   10   15 ar
    21   10   11 ar
    22   11   12 ar
    23   11   35 1
    24   12   13 ar
    25   13   14 ar
    26   13   26 1
    27   14   15 ar
    28   15   16 ar
    29   16   17 ar
    30   17   18 1
    31   18   19 am
    32   18   36 1
    33   19   20 2
    34   19   21 am
    35   21   22 1
    36   21   37 1
    37   22   23 1
    38   22   24 1
    39   22   25 1
    40   23   38 1
    41   23   39 1
    42   23   40 1
    43   24   41 1
    44   24   42 1
    45   24   43 1
    46   25   44 1
    47   25   45 1
    48   25   46 1
    49   26   47 1
    50   26   48 1
    51   27   49 1
    52   27   50 1
    53   27   51 1
@<TRIPOS>MOLECULE
ZINC03815379
   75    79     0     0     0
SMALL
USER_CHARGES

@<TRIPOS>ATOM
      1 C1         17.6153   -0.7836   -1.7674 C.3       1 <0>        -0.0461
      2 C2         16.6203   -2.6587   -0.6017 C.3       1 <0>        -0.0268
      3 C3         15.5490   -3.7472   -0.7019 C.3       1 <0>        -0.0260
      4 C4         14.1571   -2.2571   -2.0061 C.3       1 <0>        -0.0333
      5 C5         15.2284   -1.1687   -1.9060 C.3       1 <0>        -0.0263
      6 C6         13.1620   -4.1322   -0.8404 C.3       1 <0>        -0.0008
      7 C7         11.8009   -3.4458   -0.7102 C.3       1 <0>        -0.1688
      8 C8         10.6933   -4.5011   -0.7338 C.3       1 <0>         0.1457
      9 N1          9.3899   -3.8439   -0.6091 N.pl3     1 <0>        -0.7057
     10 C9          8.2326   -4.5993   -0.6058 C.ar      1 <0>         0.5860
     11 N2          8.3336   -5.9221   -0.7171 N.ar      1 <0>        -0.5779
     12 C10         7.2657   -6.6941   -0.7205 C.ar      1 <0>         0.2691
     13 C11         6.0019   -6.0908   -0.6024 C.ar      1 <0>        -0.2837
     14 C12         4.8170   -6.8450   -0.5980 C.ar      1 <0>         0.0458
     15 C13         3.6151   -6.1659   -0.4776 C.ar      1 <0>        -0.1488
     16 C14         3.6214   -4.7591   -0.3651 C.ar      1 <0>         0.4900
     17 N3          4.7461   -4.0733   -0.3767 N.ar      1 <0>        -0.4754
     18 C15         5.9306   -4.6779   -0.4851 C.ar      1 <0>         0.4296
     19 N4          7.0732   -3.9798   -0.4922 N.ar      1 <0>        -0.5537
     20 N5          2.4159   -4.0829   -0.2453 N.am      1 <0>        -0.6545
     21 C16         2.4047   -2.7396   -0.1368 C.2       1 <0>         0.6931
     22 O1          3.4509   -2.1204   -0.1441 O.2       1 <0>        -0.4948
     23 N6          1.2336   -2.0827   -0.0204 N.am      1 <0>        -0.6769
     24 C17         1.2132   -0.6815   -0.0198 C.ar      1 <0>         0.1218
     25 C18         2.1374    0.0268   -0.7760 C.ar      1 <0>        -0.0777
     26 C19         2.1165    1.4076   -0.7753 C.ar      1 <0>        -0.1324
     27 C20         1.1724    2.0869   -0.0194 C.ar      1 <0>         0.1174
     28 C21         0.2487    1.3798    0.7363 C.ar      1 <0>        -0.1872
     29 C22         0.2686   -0.0010    0.7366 C.ar      1 <0>        -0.1001
     30 O2          1.1526    3.4465   -0.0188 O.3       1 <0>        -0.3174
     31 C23         0.1534    4.0805    0.7823 C.3       1 <0>         0.0254
     32 C24         2.3334   -6.9109   -0.4667 C.ar      1 <0>        -0.0525
     33 C25         1.6588   -7.1615   -1.6616 C.ar      1 <0>        -0.0124
     34 C26         0.4677   -7.8608   -1.6452 C.ar      1 <0>        -0.1019
     35 C27        -0.0618   -8.3027   -0.4463 C.ar      1 <0>        -0.0775
     36 C28         0.5994   -8.0524    0.7426 C.ar      1 <0>        -0.1020
     37 C29         1.7942   -7.3592    0.7391 C.ar      1 <0>        -0.0127
     38 Cl1         2.6226   -7.0462    2.2322 Cl        1 <0>        -0.0435
     39 Cl2         2.3181   -6.6015   -3.1667 Cl        1 <0>        -0.0436
     40 H1         18.5870   -1.2771   -1.7491 H         1 <0>         0.1362
     41 H2         17.5415   -0.1595   -2.6580 H         1 <0>         0.1361
     42 H3         17.5065   -0.1624   -0.8784 H         1 <0>         0.1328
     43 H4         16.4476   -2.0597    0.2924 H         1 <0>         0.1558
     44 H5         17.6052   -3.1221   -0.5444 H         1 <0>         0.1757
     45 H6         15.5788   -4.3701    0.1920 H         1 <0>         0.1759
     46 H7         15.7375   -4.3631   -1.5812 H         1 <0>         0.1573
     47 H8         14.3297   -2.8561   -2.9003 H         1 <0>         0.1581
     48 H9         13.1721   -1.7938   -2.0631 H         1 <0>         0.1751
     49 H10        15.0399   -0.5527   -1.0266 H         1 <0>         0.1561
     50 H11        15.1987   -0.5454   -2.7997 H         1 <0>         0.1755
     51 H12        13.3013   -4.8236   -0.0094 H         1 <0>         0.1482
     52 H13        13.2035   -4.6815   -1.7810 H         1 <0>         0.1461
     53 H14        11.6616   -2.7544   -1.5413 H         1 <0>         0.0954
     54 H15        11.7594   -2.8965    0.2303 H         1 <0>         0.0999
     55 H16        10.8325   -5.1925    0.0973 H         1 <0>         0.0799
     56 H17        10.7347   -5.0504   -1.6743 H         1 <0>         0.0790
     57 H18         9.3392   -2.8785   -0.5289 H         1 <0>         0.4169
     58 H19         7.3596   -7.7661   -0.8117 H         1 <0>         0.1837
     59 H20         4.8419   -7.9212   -0.6854 H         1 <0>         0.1565
     60 H21         1.5812   -4.5770   -0.2395 H         1 <0>         0.4176
     61 H22         0.4049   -2.5799    0.0630 H         1 <0>         0.4079
     62 H23         2.8727   -0.5019   -1.3643 H         1 <0>         0.1414
     63 H24         2.8381    1.9588   -1.3600 H         1 <0>         0.1339
     64 H25        -0.4860    1.9093    1.3247 H         1 <0>         0.1349
     65 H26        -0.4508   -0.5514    1.3247 H         1 <0>         0.1303
     66 H27         0.2487    5.1626    0.6929 H         1 <0>         0.1024
     67 H28        -0.8350    3.7734    0.4406 H         1 <0>         0.0576
     68 H29         0.2844    3.7890    1.8244 H         1 <0>         0.0564
     69 H30        -0.0532   -8.0596   -2.5702 H         1 <0>         0.1485
     70 H31        -0.9957   -8.8451   -0.4383 H         1 <0>         0.1507
     71 H32         0.1808   -8.4001    1.6755 H         1 <0>         0.1485
     72 N7         16.5551   -1.8132   -1.8124 N.4       1 <0>        -0.4065
     73 H33        16.6985   -2.4037   -2.6401 H         1 <0>         0.4405
     74 N8         14.2222   -3.1026   -0.7954 N.4       1 <0>        -0.4062
     75 H34        14.0789   -2.5122    0.0323 H         1 <0>         0.4384
@<TRIPOS>BOND
     1    1   40 1
     2    1   41 1
     3    1   42 1
     4    1   72 1
     5    2    3 1
     6    2   43 1
     7    2   44 1
     8    2   72 1
     9    3   45 1
    10    3   46 1
    11    3   74 1
    12    4    5 1
    13    4   47 1
    14    4   48 1
    15    4   74 1
    16    5   49 1
    17    5   50 1
    18    5   72 1
    19    6    7 1
    20    6   51 1
    21    6   52 1
    22    6   74 1
    23    7    8 1
    24    7   53 1
    25    7   54 1
    26    8    9 1
    27    8   55 1
    28    8   56 1
    29    9   10 1
    30    9   57 1
    31   10   19 ar
    32   10   11 ar
    33   11   12 ar
    34   12   13 ar
    35   12   58 1
    36   13   18 ar
    37   13   14 ar
    38   14   15 ar
    39   14   59 1
    40   15   16 ar
    41   15   32 1
    42   16   17 ar
    43   16   20 1
    44   17   18 ar
    45   18   19 ar
    46   20   21 am
    47   20   60 1
    48   21   22 2
    49   21   23 am
    50   23   24 1
    51   23   61 1
    52   24   29 ar
    53   24   25 ar
    54   25   26 ar
    55   25   62 1
    56   26   27 ar
    57   26   63 1
    58   27   28 ar
    59   27   30 1
    60   28   29 ar
    61   28   64 1
    62   29   65 1
    63   30   31 1
    64   31   66 1
    65   31   67 1
    66   31   68 1
    67   32   37 ar
    68   32   33 ar
    69   33   34 ar
    70   33   39 1
    71   34   35 ar
    72   34   69 1
    73   35   36 ar
    74   35   70 1
    75   36   37 ar
    76   36   71 1
    77   37   38 1
    78   72   73 1
    79   74   75 1
@<TRIPOS>MOLECULE
ZINC03815405
   77    81     0     0     0
SMALL
USER_CHARGES

@<TRIPOS>ATOM
      1 C1        -14.8245    1.7607   -9.8470 C.3       1 <0>        -0.0461
      2 C2        -12.7907    2.2967  -11.0476 C.3       1 <0>        -0.0268
      3 C3        -11.3785    1.8007  -11.3673 C.3       1 <0>        -0.0261
      4 C4        -11.2569    0.7451   -9.1926 C.3       1 <0>        -0.0333
      5 C5        -12.6690    1.2410   -8.8728 C.3       1 <0>        -0.0262
      6 C6         -9.2231    1.2811  -10.3931 C.3       1 <0>        -0.0008
      7 C7         -8.3939    1.4096   -9.1137 C.3       1 <0>        -0.1686
      8 C8         -6.9499    0.9911   -9.3976 C.3       1 <0>         0.1459
      9 N1         -6.1560    1.1141   -8.1726 N.pl3     1 <0>        -0.7061
     10 C9         -4.8127    0.7894   -8.1842 C.ar      1 <0>         0.5853
     11 N2         -4.2678    0.3681   -9.3234 N.ar      1 <0>        -0.5789
     12 C10        -2.9927    0.0437   -9.3956 C.ar      1 <0>         0.2686
     13 C11        -2.2066    0.1520   -8.2356 C.ar      1 <0>        -0.2849
     14 C12        -0.8406   -0.1747   -8.2316 C.ar      1 <0>         0.0444
     15 C13        -0.1435   -0.0380   -7.0419 C.ar      1 <0>        -0.1500
     16 C14        -0.8194    0.4184   -5.8902 C.ar      1 <0>         0.4912
     17 N3         -2.1029    0.7136   -5.9178 N.ar      1 <0>        -0.4757
     18 C15        -2.8197    0.6050   -7.0381 C.ar      1 <0>         0.4293
     19 N4         -4.1231    0.9102   -7.0658 N.ar      1 <0>        -0.5543
     20 N5         -0.1177    0.5539   -4.7009 N.am      1 <0>        -0.6573
     21 C16        -0.7486    0.9886   -3.5921 C.2       1 <0>         0.6932
     22 O1         -1.9324    1.2619   -3.6339 O.2       1 <0>        -0.5118
     23 N6         -0.0670    1.1202   -2.4368 N.am      1 <0>        -0.7355
     24 C17        -0.7527    1.5927   -1.2315 C.3       1 <0>         0.1651
     25 C18        -0.0127    1.0858    0.0080 C.3       1 <0>        -0.1274
     26 C19        -0.7288    1.5792    1.2668 C.3       1 <0>        -0.1158
     27 C20        -0.7496    3.1091    1.2752 C.3       1 <0>        -0.1242
     28 C21        -1.4896    3.6159    0.0357 C.3       1 <0>        -0.1163
     29 C22        -0.7734    3.1225   -1.2231 C.3       1 <0>        -0.1300
     30 C23         1.3006   -0.3680   -6.9795 C.ar      1 <0>        -0.0510
     31 C24         1.7101   -1.6609   -6.6533 C.ar      1 <0>        -0.0125
     32 C25         3.0570   -1.9630   -6.6011 C.ar      1 <0>        -0.1022
     33 C26         3.9989   -0.9844   -6.8620 C.ar      1 <0>        -0.0780
     34 C27         3.5994    0.3009   -7.1809 C.ar      1 <0>        -0.1021
     35 C28         2.2555    0.6146   -7.2411 C.ar      1 <0>        -0.0125
     36 Cl1         1.7560    2.2284   -7.6410 Cl        1 <0>        -0.0438
     37 Cl2         0.5295   -2.8889   -6.3190 Cl        1 <0>        -0.0442
     38 H1        -15.3886    1.7750  -10.7795 H         1 <0>         0.1362
     39 H2        -15.2799    1.0497   -9.1577 H         1 <0>         0.1361
     40 H3        -14.8336    2.7554   -9.4015 H         1 <0>         0.1328
     41 H4        -12.7342    3.2831  -10.5872 H         1 <0>         0.1558
     42 H5        -13.3718    2.3576  -11.9678 H         1 <0>         0.1757
     43 H6        -10.8860    2.5099  -12.0327 H         1 <0>         0.1760
     44 H7        -11.4364    0.8263  -11.8524 H         1 <0>         0.1573
     45 H8        -11.3134   -0.2413   -9.6529 H         1 <0>         0.1581
     46 H9        -10.6757    0.6846   -8.2724 H         1 <0>         0.1751
     47 H10       -12.6112    2.2154   -8.3878 H         1 <0>         0.1560
     48 H11       -13.1617    0.5322   -8.2073 H         1 <0>         0.1754
     49 H12        -8.8029    1.9262  -11.1648 H         1 <0>         0.1482
     50 H13        -9.2053    0.2463  -10.7353 H         1 <0>         0.1461
     51 H14        -8.8141    0.7645   -8.3421 H         1 <0>         0.0952
     52 H15        -8.4118    2.4443   -8.7716 H         1 <0>         0.0997
     53 H16        -6.5297    1.6362  -10.1693 H         1 <0>         0.0797
     54 H17        -6.9321   -0.0437   -9.7398 H         1 <0>         0.0787
     55 H18        -6.5731    1.4235   -7.3533 H         1 <0>         0.4166
     56 H19        -2.5613   -0.2969  -10.3253 H         1 <0>         0.1832
     57 H20        -0.3486   -0.5215   -9.1284 H         1 <0>         0.1556
     58 H21         0.8268    0.3358   -4.6676 H         1 <0>         0.4157
     59 H22         0.8776    0.9021   -2.4035 H         1 <0>         0.3969
     60 H23        -1.7753    1.2154   -1.2238 H         1 <0>         0.0901
     61 H24         0.0021   -0.0041    0.0020 H         1 <0>         0.0698
     62 H25         1.0099    1.4631    0.0003 H         1 <0>         0.0701
     63 H26        -1.7514    1.2020    1.2746 H         1 <0>         0.0652
     64 H27        -0.2017    1.2182    2.1499 H         1 <0>         0.0705
     65 H28         0.2730    3.4864    1.2675 H         1 <0>         0.0644
     66 H29        -1.2598    3.4606    2.1720 H         1 <0>         0.0661
     67 H30        -1.5044    4.7058    0.0417 H         1 <0>         0.0657
     68 H31        -2.5122    3.2386    0.0434 H         1 <0>         0.0636
     69 H32         0.2491    3.4998   -1.2308 H         1 <0>         0.0643
     70 H33        -1.3006    3.4836   -2.1062 H         1 <0>         0.0665
     71 H34         3.3753   -2.9647   -6.3526 H         1 <0>         0.1482
     72 H35         5.0508   -1.2247   -6.8162 H         1 <0>         0.1505
     73 H36         4.3397    1.0608   -7.3829 H         1 <0>         0.1483
     74 N7        -13.4379    1.3338  -10.1319 N.4       1 <0>        -0.4066
     75 H37       -13.4585    0.4099  -10.5793 H         1 <0>         0.4405
     76 N8        -10.6097    1.7081  -10.1085 N.4       1 <0>        -0.4061
     77 H38       -10.5891    2.6321   -9.6612 H         1 <0>         0.4384
@<TRIPOS>BOND
     1    1   38 1
     2    1   39 1
     3    1   40 1
     4    1   74 1
     5    2    3 1
     6    2   41 1
     7    2   42 1
     8    2   74 1
     9    3   43 1
    10    3   44 1
    11    3   76 1
    12    4    5 1
    13    4   45 1
    14    4   46 1
    15    4   76 1
    16    5   47 1
    17    5   48 1
    18    5   74 1
    19    6    7 1
    20    6   49 1
    21    6   50 1
    22    6   76 1
    23    7    8 1
    24    7   51 1
    25    7   52 1
    26    8    9 1
    27    8   53 1
    28    8   54 1
    29    9   10 1
    30    9   55 1
    31   10   19 ar
    32   10   11 ar
    33   11   12 ar
    34   12   13 ar
    35   12   56 1
    36   13   18 ar
    37   13   14 ar
    38   14   15 ar
    39   14   57 1
    40   15   16 ar
    41   15   30 1
    42   16   17 ar
    43   16   20 1
    44   17   18 ar
    45   18   19 ar
    46   20   21 am
    47   20   58 1
    48   21   22 2
    49   21   23 am
    50   23   24 1
    51   23   59 1
    52   24   29 1
    53   24   25 1
    54   24   60 1
    55   25   26 1
    56   25   61 1
    57   25   62 1
    58   26   27 1
    59   26   63 1
    60   26   64 1
    61   27   28 1
    62   27   65 1
    63   27   66 1
    64   28   29 1
    65   28   67 1
    66   28   68 1
    67   29   69 1
    68   29   70 1
    69   30   35 ar
    70   30   31 ar
    71   31   32 ar
    72   31   37 1
    73   32   33 ar
    74   32   71 1
    75   33   34 ar
    76   33   72 1
    77   34   35 ar
    78   34   73 1
    79   35   36 1
    80   74   75 1
    81   76   77 1
@<TRIPOS>MOLECULE
ZINC03815480
   59    63     0     0     0
SMALL
USER_CHARGES

@<TRIPOS>ATOM
      1 C1         -5.0668    5.9046  -10.2548 C.3       1 <0>         0.0686
      2 N1         -4.9239    4.4536  -10.1124 N.am      1 <0>        -0.5054
      3 C2         -4.4245    3.9316   -8.9459 C.ar      1 <0>         0.4668
      4 C3         -4.2808    2.5355   -8.7923 C.ar      1 <0>        -0.2680
      5 C4         -4.6514    1.6628   -9.8407 C.2       1 <0>         0.0216
      6 C5         -5.1484    2.1928  -11.0012 C.2       1 <0>        -0.1509
      7 C6         -5.2845    3.6454  -11.1278 C.2       1 <0>         0.5542
      8 O1         -5.7265    4.1252  -12.1566 O.2       1 <0>        -0.4935
      9 C7         -5.5448    1.3047  -12.1188 C.ar      1 <0>        -0.0164
     10 C8         -4.6157    0.9550  -13.0994 C.ar      1 <0>        -0.0059
     11 C9         -4.9904    0.1227  -14.1360 C.ar      1 <0>        -0.1052
     12 C10        -6.2863   -0.3557  -14.2090 C.ar      1 <0>        -0.0845
     13 C11        -7.2136   -0.0086  -13.2431 C.ar      1 <0>        -0.1054
     14 C12        -6.8506    0.8190  -12.1986 C.ar      1 <0>        -0.0058
     15 Cl1        -8.0162    1.2544  -10.9880 Cl        1 <0>        -0.0514
     16 Cl2        -2.9907    1.5596  -13.0133 Cl        1 <0>        -0.0501
     17 C13        -3.7662    2.0428   -7.5837 C.ar      1 <0>         0.2617
     18 N2         -3.4373    2.9040   -6.6393 N.ar      1 <0>        -0.5734
     19 C14        -3.5862    4.2120   -6.8190 C.ar      1 <0>         0.6045
     20 N3         -4.0724    4.7237   -7.9396 N.ar      1 <0>        -0.5917
     21 N4         -3.2261    5.0692   -5.7975 N.pl3     1 <0>        -0.6306
     22 C15        -2.8255    4.5530   -4.5586 C.ar      1 <0>         0.1606
     23 C16        -1.8587    5.2128   -3.8113 C.ar      1 <0>        -0.1196
     24 C17        -1.4635    4.7037   -2.5902 C.ar      1 <0>        -0.1041
     25 C18        -2.0333    3.5322   -2.1091 C.ar      1 <0>         0.0675
     26 C19        -2.9964    2.8695   -2.8588 C.ar      1 <0>        -0.1392
     27 C20        -3.3956    3.3817   -4.0773 C.ar      1 <0>        -0.0846
     28 N5         -1.6329    3.0162   -0.8714 N.pl3     1 <0>        -0.4847
     29 C21        -2.3588    1.7777   -0.5574 C.3       1 <0>         0.0193
     30 C22        -1.8368    1.2042    0.7621 C.3       1 <0>         0.0019
     31 C23        -1.2866    3.4378    1.5152 C.3       1 <0>         0.0016
     32 C24        -1.8086    4.0112    0.1957 C.3       1 <0>         0.0240
     33 C25        -1.5914    1.6571    3.1285 C.3       1 <0>        -0.0409
     34 H1         -4.1501    6.3207  -10.6725 H         1 <0>         0.0762
     35 H2         -5.9017    6.1239  -10.9203 H         1 <0>         0.0942
     36 H3         -5.2550    6.3488   -9.2773 H         1 <0>         0.0950
     37 H4         -4.5432    0.5941   -9.7284 H         1 <0>         0.1519
     38 H5         -4.2713   -0.1518  -14.8936 H         1 <0>         0.1452
     39 H6         -6.5754   -1.0028  -15.0239 H         1 <0>         0.1471
     40 H7         -8.2239   -0.3852  -13.3060 H         1 <0>         0.1450
     41 H8         -3.6422    0.9811   -7.4293 H         1 <0>         0.1885
     42 H9         -3.2505    6.0286   -5.9382 H         1 <0>         0.4287
     43 H10        -1.4156    6.1239   -4.1855 H         1 <0>         0.1346
     44 H11        -0.7116    5.2169   -2.0091 H         1 <0>         0.1318
     45 H12        -3.4360    1.9559   -2.4869 H         1 <0>         0.1296
     46 H13        -4.1481    2.8690   -4.6582 H         1 <0>         0.1420
     47 H14        -2.2030    1.0524   -1.3560 H         1 <0>         0.1299
     48 H15        -3.4231    1.9936   -0.4644 H         1 <0>         0.0706
     49 H16        -2.3938    0.3011    1.0117 H         1 <0>         0.1374
     50 H17        -0.7788    0.9626    0.6604 H         1 <0>         0.1402
     51 H18        -0.2223    3.2219    1.4222 H         1 <0>         0.1402
     52 H19        -1.4421    4.1632    2.3138 H         1 <0>         0.1371
     53 H20        -1.2516    4.9144   -0.0539 H         1 <0>         0.1275
     54 H21        -2.8666    4.2528    0.2970 H         1 <0>         0.0686
     55 H22        -0.5391    1.3766    3.0815 H         1 <0>         0.1245
     56 H23        -1.7316    2.4138    3.9004 H         1 <0>         0.1229
     57 H24        -2.1912    0.7789    3.3673 H         1 <0>         0.1229
     58 N6         -2.0395    2.2052    1.8304 N.4       1 <0>        -0.4000
     59 H25        -3.0392    2.4311    1.8909 H         1 <0>         0.4272
@<TRIPOS>BOND
     1    1    2 1
     2    1   34 1
     3    1   35 1
     4    1   36 1
     5    2    7 am
     6    2    3 1
     7    3   20 ar
     8    3    4 ar
     9    4    5 1
    10    4   17 ar
    11    5    6 2
    12    5   37 1
    13    6    7 1
    14    6    9 1
    15    7    8 2
    16    9   14 ar
    17    9   10 ar
    18   10   11 ar
    19   10   16 1
    20   11   12 ar
    21   11   38 1
    22   12   13 ar
    23   12   39 1
    24   13   14 ar
    25   13   40 1
    26   14   15 1
    27   17   18 ar
    28   17   41 1
    29   18   19 ar
    30   19   20 ar
    31   19   21 1
    32   21   22 1
    33   21   42 1
    34   22   27 ar
    35   22   23 ar
    36   23   24 ar
    37   23   43 1
    38   24   25 ar
    39   24   44 1
    40   25   26 ar
    41   25   28 1
    42   26   27 ar
    43   26   45 1
    44   27   46 1
    45   28   32 1
    46   28   29 1
    47   29   30 1
    48   29   47 1
    49   29   48 1
    50   30   49 1
    51   30   50 1
    52   30   58 1
    53   31   32 1
    54   31   51 1
    55   31   52 1
    56   31   58 1
    57   32   53 1
    58   32   54 1
    59   33   55 1
    60   33   56 1
    61   33   57 1
    62   33   58 1
    63   58   59 1
@<TRIPOS>MOLECULE
ZINC03815482
   66    69     0     0     0
SMALL
USER_CHARGES

@<TRIPOS>ATOM
      1 C1          2.0264    8.2096    2.3954 C.3       1 <0>        -0.1628
      2 C2          2.4026    8.1290    0.9145 C.3       1 <0>         0.0964
      3 N1          3.6471    7.3702    0.7675 N.am      1 <0>        -0.5024
      4 C3          3.5968    6.0100    0.5949 C.ar      1 <0>         0.4685
      5 C4          4.7868    5.2639    0.4516 C.ar      1 <0>        -0.2694
      6 C5          6.0418    5.9134    0.4849 C.2       1 <0>         0.0217
      7 C6          6.0821    7.2712    0.6566 C.2       1 <0>        -0.1523
      8 C7          4.8291    8.0151    0.8026 C.2       1 <0>         0.5554
      9 O1          4.8560    9.2232    0.9562 O.2       1 <0>        -0.4938
     10 C8          7.3818    7.9814    0.6954 C.ar      1 <0>        -0.0156
     11 C9          8.0419    8.1688    1.9104 C.ar      1 <0>        -0.0059
     12 C10         9.2555    8.8276    1.9390 C.ar      1 <0>        -0.1056
     13 C11         9.8119    9.3099    0.7680 C.ar      1 <0>        -0.0849
     14 C12         9.1599    9.1324   -0.4390 C.ar      1 <0>        -0.1053
     15 C13         7.9483    8.4708   -0.4822 C.ar      1 <0>        -0.0061
     16 Cl1         7.1317    8.2492   -1.9980 Cl        1 <0>        -0.0506
     17 Cl2         7.3425    7.5696    3.3820 Cl        1 <0>        -0.0511
     18 C14         4.6913    3.8752    0.2767 C.ar      1 <0>         0.2622
     19 N2          3.4930    3.3223    0.2532 N.ar      1 <0>        -0.5746
     20 C15         2.3941    4.0562    0.3912 C.ar      1 <0>         0.6038
     21 N3          2.4337    5.3699    0.5536 N.ar      1 <0>        -0.5905
     22 N4          1.1651    3.4265    0.3585 N.pl3     1 <0>        -0.6300
     23 C16         1.0957    2.0296    0.2920 C.ar      1 <0>         0.1461
     24 C17         2.0510    1.2551    0.9368 C.ar      1 <0>        -0.0695
     25 C18         1.9816   -0.1226    0.8710 C.ar      1 <0>        -0.1191
     26 C19         0.9576   -0.7327    0.1615 C.ar      1 <0>         0.0968
     27 C20         0.0029    0.0403   -0.4828 C.ar      1 <0>        -0.1793
     28 C21         0.0711    1.4180   -0.4184 C.ar      1 <0>        -0.1052
     29 O2          0.8894   -2.0893    0.0980 O.3       1 <0>        -0.3290
     30 C22        -0.1914   -2.6503   -0.6498 C.3       1 <0>         0.0255
     31 C23        -0.0357   -4.1712   -0.7085 C.3       1 <0>        -0.0025
     32 C24        -1.5478   -4.7397    1.0951 C.3       1 <0>        -0.0102
     33 C25        -1.6026   -5.0866    2.5842 C.3       1 <0>        -0.1898
     34 C26         0.4370   -6.0731    0.7135 C.3       1 <0>        -0.0110
     35 C27         1.9503   -5.9810    0.5078 C.3       1 <0>        -0.1898
     36 H1          2.8235    8.7089    2.9461 H         1 <0>         0.0619
     37 H2          1.1004    8.7741    2.5048 H         1 <0>         0.0783
     38 H3          1.8872    7.2032    2.7902 H         1 <0>         0.0585
     39 H4          2.5418    9.1353    0.5197 H         1 <0>         0.0996
     40 H5          1.6054    7.6296    0.3638 H         1 <0>         0.1008
     41 H6          6.9551    5.3474    0.3754 H         1 <0>         0.1514
     42 H7          9.7695    8.9697    2.8782 H         1 <0>         0.1449
     43 H8         10.7593    9.8276    0.7963 H         1 <0>         0.1469
     44 H9          9.5995    9.5117   -1.3497 H         1 <0>         0.1450
     45 H10         5.5795    3.2713    0.1634 H         1 <0>         0.1885
     46 H11         0.3501    3.9521    0.3817 H         1 <0>         0.4283
     47 H12         2.8456    1.7299    1.4932 H         1 <0>         0.1472
     48 H13         2.7245   -0.7251    1.3724 H         1 <0>         0.1364
     49 H14        -0.7939   -0.4355   -1.0353 H         1 <0>         0.1310
     50 H15        -0.6721    2.0197   -0.9205 H         1 <0>         0.1341
     51 H16        -1.1359   -2.4001   -0.1667 H         1 <0>         0.0849
     52 H17        -0.1822   -2.2448   -1.6616 H         1 <0>         0.1085
     53 H18        -0.8173   -4.5923   -1.3409 H         1 <0>         0.1497
     54 H19         0.9410   -4.4207   -1.1233 H         1 <0>         0.1425
     55 H20        -1.9893   -3.7562    0.9346 H         1 <0>         0.1260
     56 H21        -2.1051   -5.4851    0.5277 H         1 <0>         0.1322
     57 H22        -1.1610   -6.0702    2.7447 H         1 <0>         0.0810
     58 H23        -1.0453   -4.3412    3.1517 H         1 <0>         0.0806
     59 H24        -2.6404   -5.0955    2.9173 H         1 <0>         0.1065
     60 H25         0.2290   -6.5116    1.6895 H         1 <0>         0.1312
     61 H26         0.0017   -6.6984   -0.0660 H         1 <0>         0.1308
     62 H27         2.1588   -5.4709   -0.4327 H         1 <0>         0.0800
     63 H28         2.3955   -5.4219    1.3308 H         1 <0>         0.0820
     64 H29         2.3747   -6.9845    0.4787 H         1 <0>         0.1059
     65 N5         -0.1342   -4.7107    0.6640 N.4       1 <0>        -0.3987
     66 H30         0.3960   -4.1035    1.2999 H         1 <0>         0.4338
@<TRIPOS>BOND
     1    1    2 1
     2    1   36 1
     3    1   37 1
     4    1   38 1
     5    2    3 1
     6    2   39 1
     7    2   40 1
     8    3    8 am
     9    3    4 1
    10    4   21 ar
    11    4    5 ar
    12    5    6 1
    13    5   18 ar
    14    6    7 2
    15    6   41 1
    16    7    8 1
    17    7   10 1
    18    8    9 2
    19   10   15 ar
    20   10   11 ar
    21   11   12 ar
    22   11   17 1
    23   12   13 ar
    24   12   42 1
    25   13   14 ar
    26   13   43 1
    27   14   15 ar
    28   14   44 1
    29   15   16 1
    30   18   19 ar
    31   18   45 1
    32   19   20 ar
    33   20   21 ar
    34   20   22 1
    35   22   23 1
    36   22   46 1
    37   23   28 ar
    38   23   24 ar
    39   24   25 ar
    40   24   47 1
    41   25   26 ar
    42   25   48 1
    43   26   27 ar
    44   26   29 1
    45   27   28 ar
    46   27   49 1
    47   28   50 1
    48   29   30 1
    49   30   31 1
    50   30   51 1
    51   30   52 1
    52   31   53 1
    53   31   54 1
    54   31   65 1
    55   32   33 1
    56   32   55 1
    57   32   56 1
    58   32   65 1
    59   33   57 1
    60   33   58 1
    61   33   59 1
    62   34   35 1
    63   34   60 1
    64   34   61 1
    65   34   65 1
    66   35   62 1
    67   35   63 1
    68   35   64 1
    69   65   66 1
@<TRIPOS>MOLECULE
ZINC03815483
   63    66     0     0     0
SMALL
USER_CHARGES

@<TRIPOS>ATOM
      1 C1          1.5894    9.2284    0.0640 C.3       1 <0>        -0.1634
      2 C2          1.8353    8.8707   -1.4032 C.3       1 <0>         0.0962
      3 N1          3.1219    8.1814   -1.5287 N.am      1 <0>        -0.5021
      4 C3          3.1731    6.8144   -1.4229 C.ar      1 <0>         0.4682
      5 C4          4.4048    6.1347   -1.5415 C.ar      1 <0>        -0.2648
      6 C5          5.5972    6.8583   -1.7706 C.2       1 <0>         0.0183
      7 C6          5.5363    8.2221   -1.8757 C.2       1 <0>        -0.1470
      8 C7          4.2425    8.8960   -1.7473 C.2       1 <0>         0.5544
      9 O1          4.1793   10.1091   -1.8391 O.2       1 <0>        -0.4910
     10 C8          6.7683    9.0090   -2.1161 C.ar      1 <0>        -0.0179
     11 C9          7.5174    9.4846   -1.0392 C.ar      1 <0>        -0.0056
     12 C10         8.6676   10.2135   -1.2702 C.ar      1 <0>        -0.1050
     13 C11         9.0720   10.4809   -2.5658 C.ar      1 <0>        -0.0839
     14 C12         8.3309   10.0172   -3.6378 C.ar      1 <0>        -0.1051
     15 C13         7.1816    9.2827   -3.4206 C.ar      1 <0>        -0.0057
     16 Cl1         6.2530    8.7016   -4.7673 Cl        1 <0>        -0.0513
     17 Cl2         7.0083    9.1552    0.5875 Cl        1 <0>        -0.0503
     18 C14         4.4133    4.7364   -1.4275 C.ar      1 <0>         0.2617
     19 N2          3.2698    4.1129   -1.2141 N.ar      1 <0>        -0.5769
     20 C15         2.1290    4.7856   -1.1078 C.ar      1 <0>         0.6012
     21 N3          2.0702    6.1045   -1.2132 N.ar      1 <0>        -0.5876
     22 N4          0.9607    4.0833   -0.8848 N.pl3     1 <0>        -0.6311
     23 C16         1.0056    2.7009   -0.6665 C.ar      1 <0>         0.1605
     24 C17         2.0864    2.1375   -0.0009 C.ar      1 <0>        -0.0663
     25 C18         2.1297    0.7741    0.2143 C.ar      1 <0>        -0.0998
     26 C19         1.0939   -0.0325   -0.2337 C.ar      1 <0>         0.0600
     27 C20         0.0140    0.5296   -0.8986 C.ar      1 <0>        -0.1968
     28 C21        -0.0307    1.8927   -1.1151 C.ar      1 <0>        -0.1028
     29 O2          1.1369   -1.3748   -0.0205 O.3       1 <0>        -0.2870
     30 C22         0.0366   -2.1448   -0.5087 C.3       1 <0>         0.1673
     31 C23         1.1265   -3.4902   -2.2012 C.3       1 <0>        -0.0066
     32 C24         2.5639   -3.0241   -1.9611 C.3       1 <0>        -0.1885
     33 C25        -1.0950   -2.6125   -2.5976 C.3       1 <0>        -0.0080
     34 C26        -0.9461   -2.4498   -4.1116 C.3       1 <0>        -0.1897
     35 H1          1.5735    8.3175    0.6623 H         1 <0>         0.0586
     36 H2          2.3874    9.8814    0.4174 H         1 <0>         0.0625
     37 H3          0.6321    9.7413    0.1574 H         1 <0>         0.0791
     38 H4          1.8512    9.7817   -2.0015 H         1 <0>         0.1003
     39 H5          1.0373    8.2178   -1.7566 H         1 <0>         0.1007
     40 H6          6.5420    6.3431   -1.8624 H         1 <0>         0.1524
     41 H7          9.2504   10.5787   -0.4376 H         1 <0>         0.1455
     42 H8          9.9701   11.0545   -2.7410 H         1 <0>         0.1474
     43 H9          8.6519   10.2297   -4.6469 H         1 <0>         0.1453
     44 H10         5.3361    4.1818   -1.5130 H         1 <0>         0.1896
     45 H11         0.1091    4.5477   -0.8794 H         1 <0>         0.4300
     46 H12         2.8906    2.7659    0.3522 H         1 <0>         0.1536
     47 H13         2.9701    0.3358    0.7320 H         1 <0>         0.1445
     48 H14        -0.7919   -0.0992   -1.2474 H         1 <0>         0.1226
     49 H15        -0.8714    2.3300   -1.6331 H         1 <0>         0.1385
     50 H16         0.0036   -3.1020    0.0117 H         1 <0>         0.1739
     51 H17        -0.8927   -1.6031   -0.3322 H         1 <0>         0.1326
     52 H18         0.8943   -4.3144   -1.5268 H         1 <0>         0.1330
     53 H19         1.0206   -3.8244   -3.2333 H         1 <0>         0.1290
     54 H20         3.2556   -3.8147   -2.2520 H         1 <0>         0.1033
     55 H21         2.7607   -2.1321   -2.5558 H         1 <0>         0.0753
     56 H22         2.6993   -2.7935   -0.9044 H         1 <0>         0.0904
     57 H23        -1.4349   -3.6234   -2.3725 H         1 <0>         0.1371
     58 H24        -1.8236   -1.8927   -2.2247 H         1 <0>         0.1280
     59 H25        -0.6306   -1.4314   -4.3383 H         1 <0>         0.0805
     60 H26        -0.1990   -3.1523   -4.4808 H         1 <0>         0.0821
     61 H27        -1.9027   -2.6498   -4.5943 H         1 <0>         0.1093
     62 N5          0.2136   -2.3528   -1.9614 N.4       1 <0>        -0.4258
     63 H28         0.6219   -1.5051   -2.3724 H         1 <0>         0.4270
@<TRIPOS>BOND
     1    1    2 1
     2    1   35 1
     3    1   36 1
     4    1   37 1
     5    2    3 1
     6    2   38 1
     7    2   39 1
     8    3    8 am
     9    3    4 1
    10    4   21 ar
    11    4    5 ar
    12    5    6 1
    13    5   18 ar
    14    6    7 2
    15    6   40 1
    16    7    8 1
    17    7   10 1
    18    8    9 2
    19   10   15 ar
    20   10   11 ar
    21   11   12 ar
    22   11   17 1
    23   12   13 ar
    24   12   41 1
    25   13   14 ar
    26   13   42 1
    27   14   15 ar
    28   14   43 1
    29   15   16 1
    30   18   19 ar
    31   18   44 1
    32   19   20 ar
    33   20   21 ar
    34   20   22 1
    35   22   23 1
    36   22   45 1
    37   23   28 ar
    38   23   24 ar
    39   24   25 ar
    40   24   46 1
    41   25   26 ar
    42   25   47 1
    43   26   27 ar
    44   26   29 1
    45   27   28 ar
    46   27   48 1
    47   28   49 1
    48   29   30 1
    49   30   50 1
    50   30   51 1
    51   30   62 1
    52   31   32 1
    53   31   52 1
    54   31   53 1
    55   31   62 1
    56   32   54 1
    57   32   55 1
    58   32   56 1
    59   33   34 1
    60   33   57 1
    61   33   58 1
    62   33   62 1
    63   34   59 1
    64   34   60 1
    65   34   61 1
    66   62   63 1
@<TRIPOS>MOLECULE
ZINC03815484
   34    36     0     0     0
SMALL
USER_CHARGES

@<TRIPOS>ATOM
      1 C1          3.0060    3.5075    0.1262 C.ar      1 <0>        -0.1377
      2 C2          3.3625    2.4024   -0.6291 C.ar      1 <0>        -0.0941
      3 C3          2.4033    1.6657   -1.2936 C.ar      1 <0>        -0.1374
      4 C4          1.0630    2.0269   -1.2085 C.ar      1 <0>         0.1323
      5 C5          0.7062    3.1454   -0.4430 C.ar      1 <0>        -0.0825
      6 C6          1.6812    3.8820    0.2222 C.ar      1 <0>        -0.0700
      7 C7         -0.7645    3.2703   -0.5479 C.2       1 <0>        -0.2293
      8 C8         -1.5708    4.2263    0.0398 C.2       1 <0>         0.1058
      9 C9         -2.9740    4.1098   -0.0381 C.2       1 <0>        -0.0301
     10 C10        -3.8807    5.1552   -0.1239 C.2       1 <0>        -0.0680
     11 C11        -5.1551    4.5880   -0.1809 C.2       1 <0>        -0.2147
     12 C12        -5.0156    3.2398   -0.1308 C.2       1 <0>         0.0332
     13 N1         -3.6959    2.9356   -0.0492 N.pl3     1 <0>        -0.5163
     14 H1         -3.3228    2.0413   -0.0041 H         1 <0>         0.4166
     15 C13        -3.5526    6.6258   -0.1508 C.3       1 <0>        -0.0397
     16 C14        -3.2354    7.0513   -1.5858 C.3       1 <0>        -0.1479
     17 C15        -2.9072    8.5219   -1.6128 C.2       1 <0>         0.4597
     18 O1         -2.9252    9.1638   -0.5893 O.co2     1 <0>        -0.6421
     19 C16        -1.1810    2.1617   -1.4163 C.2       1 <0>         0.5580
     20 O2         -2.3230    1.9105   -1.7583 O.2       1 <0>        -0.5171
     21 N2         -0.0823    1.4710   -1.7650 N.am      1 <0>        -0.6532
     22 H2          3.7659    4.0766    0.6410 H         1 <0>         0.1284
     23 H3          4.4012    2.1151   -0.6993 H         1 <0>         0.1278
     24 H4          2.6938    0.8061   -1.8794 H         1 <0>         0.1234
     25 H5          1.4024    4.7430    0.8114 H         1 <0>         0.1302
     26 H6         -1.1263    5.0626    0.5588 H         1 <0>         0.1536
     27 H7         -6.0878    5.1278   -0.2521 H         1 <0>         0.1403
     28 H8         -5.8240    2.5241   -0.1565 H         1 <0>         0.1649
     29 H9         -4.4062    7.1953    0.2168 H         1 <0>         0.0751
     30 H10        -2.6876    6.8167    0.4844 H         1 <0>         0.0689
     31 H11        -2.3818    6.4818   -1.9534 H         1 <0>         0.0604
     32 H12        -4.1003    6.8603   -2.2210 H         1 <0>         0.0644
     33 H13        -0.0876    0.6868   -2.3358 H         1 <0>         0.4135
     34 O3         -2.5949    9.1187   -2.7738 O.co2     1 <0>        -0.7766
@<TRIPOS>BOND
     1    1    6 ar
     2    1    2 ar
     3    1   22 1
     4    2    3 ar
     5    2   23 1
     6    3    4 ar
     7    3   24 1
     8    4   21 1
     9    4    5 ar
    10    5    6 ar
    11    5    7 1
    12    6   25 1
    13    7    8 2
    14    7   19 1
    15    8    9 1
    16    8   26 1
    17    9   13 1
    18    9   10 2
    19   10   11 1
    20   10   15 1
    21   11   12 2
    22   11   27 1
    23   12   13 1
    24   12   28 1
    25   13   14 1
    26   15   16 1
    27   15   29 1
    28   15   30 1
    29   16   17 1
    30   16   31 1
    31   16   32 1
    32   17   18 2
    33   17   34 1
    34   19   20 2
    35   19   21 am
    36   21   33 1
@<TRIPOS>MOLECULE
ZINC03815485
   37    39     0     0     0
SMALL
USER_CHARGES

@<TRIPOS>ATOM
      1 C1          6.4107    5.2592    0.3537 C.3       1 <0>        -0.0795
      2 C2          5.3007    4.2465    0.2384 C.2       1 <0>        -0.1824
      3 C3          5.4531    2.9006    0.1670 C.2       1 <0>         0.0341
      4 N1          4.2294    2.3226    0.0715 N.pl3     1 <0>        -0.5149
      5 H1          4.0567    1.3703    0.0065 H         1 <0>         0.4168
      6 C4          3.2725    3.3147    0.0816 C.2       1 <0>        -0.0293
      7 C5          3.9347    4.5288    0.1802 C.2       1 <0>        -0.0647
      8 C6          3.2997    5.8949    0.2206 C.3       1 <0>        -0.0405
      9 C7          3.0113    6.2804    1.6729 C.3       1 <0>        -0.1466
     10 C8          2.3763    7.6465    1.7134 C.2       1 <0>         0.4587
     11 O1          2.1750    8.2498    0.6860 O.co2     1 <0>        -0.6409
     12 C9          1.8769    3.1293    0.0005 C.2       1 <0>         0.1068
     13 C10         1.3602    2.0950   -0.7562 C.2       1 <0>        -0.2301
     14 C11        -0.0507    1.6563   -0.8367 C.ar      1 <0>        -0.0827
     15 C12        -1.2222    2.0949   -0.2277 C.ar      1 <0>        -0.0701
     16 C13        -2.4180    1.4683   -0.5138 C.ar      1 <0>        -0.1371
     17 C14        -2.4493    0.4013   -1.3965 C.ar      1 <0>        -0.0942
     18 C15        -1.2923   -0.0444   -2.0023 C.ar      1 <0>        -0.1378
     19 C16        -0.0783    0.5770   -1.7304 C.ar      1 <0>         0.1314
     20 N2          1.2094    0.3347   -2.1925 N.am      1 <0>        -0.6534
     21 C17         2.0923    1.1937   -1.6552 C.2       1 <0>         0.5578
     22 O2          3.2903    1.2198   -1.8751 O.2       1 <0>        -0.5177
     23 H2          6.7296    5.5639   -0.6430 H         1 <0>         0.0584
     24 H3          6.0524    6.1301    0.9026 H         1 <0>         0.0675
     25 H4          7.2530    4.8161    0.8851 H         1 <0>         0.0563
     26 H5          6.3961    2.3743    0.1835 H         1 <0>         0.1640
     27 H6          3.9786    6.6243   -0.2210 H         1 <0>         0.0750
     28 H7          2.3669    5.8788   -0.3431 H         1 <0>         0.0676
     29 H8          2.3324    5.5510    2.1146 H         1 <0>         0.0610
     30 H9          3.9441    6.2965    2.2366 H         1 <0>         0.0651
     31 H10         1.2120    3.7956    0.5299 H         1 <0>         0.1543
     32 H11        -1.1970    2.9269    0.4604 H         1 <0>         0.1314
     33 H12        -3.3302    1.8080   -0.0459 H         1 <0>         0.1288
     34 H13        -3.3882   -0.0868   -1.6125 H         1 <0>         0.1278
     35 H14        -1.3297   -0.8771   -2.6890 H         1 <0>         0.1231
     36 H15         1.4415   -0.3650   -2.8228 H         1 <0>         0.4132
     37 O3          2.0343    8.1931    2.8907 O.co2     1 <0>        -0.7772
@<TRIPOS>BOND
     1    1    2 1
     2    1   23 1
     3    1   24 1
     4    1   25 1
     5    2    7 1
     6    2    3 2
     7    3    4 1
     8    3   26 1
     9    4    5 1
    10    4    6 1
    11    6    7 2
    12    6   12 1
    13    7    8 1
    14    8    9 1
    15    8   27 1
    16    8   28 1
    17    9   10 1
    18    9   29 1
    19    9   30 1
    20   10   11 2
    21   10   37 1
    22   12   13 2
    23   12   31 1
    24   13   21 1
    25   13   14 1
    26   14   19 ar
    27   14   15 ar
    28   15   16 ar
    29   15   32 1
    30   16   17 ar
    31   16   33 1
    32   17   18 ar
    33   17   34 1
    34   18   19 ar
    35   18   35 1
    36   19   20 1
    37   20   21 am
    38   20   36 1
    39   21   22 2
@<TRIPOS>MOLECULE
ZINC03815488
   63    66     0     0     0
SMALL
USER_CHARGES

@<TRIPOS>ATOM
      1 C1          1.4887    2.0457    2.9267 C.3       1 <0>        -0.1870
      2 C2          0.1005    1.4243    2.7597 C.3       1 <0>        -0.0158
      3 C3         -0.5898    3.1680    1.2281 C.3       1 <0>        -0.0116
      4 C4         -1.7843    3.6452    2.0567 C.3       1 <0>        -0.1882
      5 C5          0.4705    1.1628    0.3811 C.3       1 <0>        -0.0029
      6 C6          0.4361   -0.3651    0.4536 C.3       1 <0>         0.0270
      7 O1         -0.8750   -0.8282    0.1240 O.3       1 <0>        -0.3287
      8 C7         -1.0772   -2.1720    0.1412 C.ar      1 <0>         0.1339
      9 C8         -0.0325   -3.0273    0.4635 C.ar      1 <0>        -0.2170
     10 C9         -0.2376   -4.3936    0.4862 C.ar      1 <0>        -0.0567
     11 C10        -1.4800   -4.9135    0.1781 C.ar      1 <0>        -0.1296
     12 C11        -2.5279   -4.0626   -0.1503 C.ar      1 <0>         0.2084
     13 C12        -2.3249   -2.6893   -0.1684 C.ar      1 <0>        -0.1708
     14 N1         -3.7850   -4.5884   -0.4625 N.pl3     1 <0>        -0.6321
     15 C13        -3.8828   -5.7643   -1.1815 C.ar      1 <0>         0.6048
     16 N2         -2.7732   -6.3146   -1.6626 N.ar      1 <0>        -0.5701
     17 C14        -2.8115   -7.4398   -2.3509 C.ar      1 <0>         0.2634
     18 C15        -4.0566   -8.0459   -2.5785 C.ar      1 <0>        -0.2660
     19 C16        -4.1623   -9.2485   -3.3137 C.2       1 <0>         0.0217
     20 C17        -5.3999   -9.8006   -3.5087 C.2       1 <0>        -0.1505
     21 C18        -6.5800   -9.1343   -2.9535 C.2       1 <0>         0.5544
     22 O2         -7.6849   -9.6187   -3.1219 O.2       1 <0>        -0.4936
     23 N3         -6.4496   -7.9887   -2.2572 N.am      1 <0>        -0.5054
     24 C19        -5.2134   -7.4284   -2.0564 C.ar      1 <0>         0.4654
     25 N4         -5.0794   -6.2987   -1.3704 N.ar      1 <0>        -0.5912
     26 C20        -7.6400   -7.3344   -1.7083 C.3       1 <0>         0.0691
     27 C21        -5.5442  -11.0605   -4.2749 C.ar      1 <0>        -0.0166
     28 C22        -5.7399  -11.0222   -5.6560 C.ar      1 <0>        -0.0058
     29 C23        -5.8692  -12.2005   -6.3649 C.ar      1 <0>        -0.1053
     30 C24        -5.8148  -13.4163   -5.7074 C.ar      1 <0>        -0.0844
     31 C25        -5.6263  -13.4611   -4.3378 C.ar      1 <0>        -0.1051
     32 C26        -5.4907  -12.2903   -3.6177 C.ar      1 <0>        -0.0058
     33 Cl1        -5.2547  -12.3486   -1.8988 Cl        1 <0>        -0.0505
     34 Cl2        -5.8150   -9.4972   -6.4820 Cl        1 <0>        -0.0509
     35 H1          1.4066    3.1321    2.8955 H         1 <0>         0.0823
     36 H2          1.9105    1.7406    3.8843 H         1 <0>         0.1069
     37 H3          2.1379    1.7070    2.1193 H         1 <0>         0.0794
     38 H4         -0.5761    1.8407    3.5060 H         1 <0>         0.1316
     39 H5          0.1675    0.3445    2.8921 H         1 <0>         0.1265
     40 H6          0.3098    3.6906    1.5532 H         1 <0>         0.1330
     41 H7         -0.7715    3.3784    0.1742 H         1 <0>         0.1293
     42 H8         -2.6602    3.0449    1.8106 H         1 <0>         0.0798
     43 H9         -1.5568    3.5381    3.1173 H         1 <0>         0.0799
     44 H10        -1.9868    4.6925    1.8325 H         1 <0>         0.1065
     45 H11         1.4901    1.5114    0.5452 H         1 <0>         0.1520
     46 H12         0.1292    1.4877   -0.6017 H         1 <0>         0.1410
     47 H13         1.1558   -0.7787   -0.2528 H         1 <0>         0.1097
     48 H14         0.6918   -0.6868    1.4632 H         1 <0>         0.0870
     49 H15         0.9410   -2.6242    0.7008 H         1 <0>         0.1281
     50 H16         0.5760   -5.0566    0.7409 H         1 <0>         0.1355
     51 H17        -1.6367   -5.9819    0.1929 H         1 <0>         0.1385
     52 H18        -3.1377   -2.0256   -0.4237 H         1 <0>         0.1354
     53 H19        -4.5886   -4.1279   -0.1743 H         1 <0>         0.4285
     54 H20        -1.9043   -7.8827   -2.7346 H         1 <0>         0.1900
     55 H21        -3.2801   -9.7251   -3.7149 H         1 <0>         0.1528
     56 H22        -8.0388   -6.6323   -2.4404 H         1 <0>         0.0756
     57 H23        -8.3943   -8.0867   -1.4778 H         1 <0>         0.0942
     58 H24        -7.3724   -6.7976   -0.7982 H         1 <0>         0.0947
     59 H25        -6.0166  -12.1724   -7.4344 H         1 <0>         0.1451
     60 H26        -5.9203  -14.3347   -6.2659 H         1 <0>         0.1472
     61 H27        -5.5854  -14.4135   -3.8304 H         1 <0>         0.1452
     62 N5         -0.4363    1.7095    1.4124 N.4       1 <0>        -0.3971
     63 H28        -1.3561    1.2629    1.3184 H         1 <0>         0.4352
@<TRIPOS>BOND
     1    1    2 1
     2    1   35 1
     3    1   36 1
     4    1   37 1
     5    2   38 1
     6    2   39 1
     7    2   62 1
     8    3    4 1
     9    3   40 1
    10    3   41 1
    11    3   62 1
    12    4   42 1
    13    4   43 1
    14    4   44 1
    15    5    6 1
    16    5   45 1
    17    5   46 1
    18    5   62 1
    19    6    7 1
    20    6   47 1
    21    6   48 1
    22    7    8 1
    23    8   13 ar
    24    8    9 ar
    25    9   10 ar
    26    9   49 1
    27   10   11 ar
    28   10   50 1
    29   11   12 ar
    30   11   51 1
    31   12   13 ar
    32   12   14 1
    33   13   52 1
    34   14   15 1
    35   14   53 1
    36   15   25 ar
    37   15   16 ar
    38   16   17 ar
    39   17   18 ar
    40   17   54 1
    41   18   24 ar
    42   18   19 1
    43   19   20 2
    44   19   55 1
    45   20   21 1
    46   20   27 1
    47   21   22 2
    48   21   23 am
    49   23   24 1
    50   23   26 1
    51   24   25 ar
    52   26   56 1
    53   26   57 1
    54   26   58 1
    55   27   32 ar
    56   27   28 ar
    57   28   29 ar
    58   28   34 1
    59   29   30 ar
    60   29   59 1
    61   30   31 ar
    62   30   60 1
    63   31   32 ar
    64   31   61 1
    65   32   33 1
    66   62   63 1
@<TRIPOS>MOLECULE
ZINC03815489
   60    63     0     0     0
SMALL
USER_CHARGES

@<TRIPOS>ATOM
      1 C1          2.0709    8.2772    0.4276 C.3       1 <0>         0.0692
      2 N1          3.3654    7.5914    0.4148 N.am      1 <0>        -0.5057
      3 C2          3.4085    6.2243    0.3059 C.ar      1 <0>         0.4670
      4 C3          4.6476    5.5480    0.2920 C.ar      1 <0>        -0.2713
      5 C4          5.8559    6.2749    0.3904 C.2       1 <0>         0.0246
      6 C5          5.8030    7.6389    0.4978 C.2       1 <0>        -0.1551
      7 C6          4.5011    8.3093    0.5096 C.2       1 <0>         0.5550
      8 O1          4.4450    9.5224    0.6053 O.2       1 <0>        -0.4959
      9 C7          7.0517    8.4294    0.6022 C.ar      1 <0>        -0.0146
     10 C8          7.6001    8.7111    1.8540 C.ar      1 <0>        -0.0060
     11 C9          8.7666    9.4453    1.9441 C.ar      1 <0>        -0.1056
     12 C10         9.3860    9.9087    0.7974 C.ar      1 <0>        -0.0853
     13 C11         8.8450    9.6370   -0.4464 C.ar      1 <0>        -0.1056
     14 C12         7.6814    8.9002   -0.5507 C.ar      1 <0>        -0.0062
     15 Cl1         7.0034    8.5613   -2.1124 Cl        1 <0>        -0.0508
     16 Cl2         6.8210    8.1355    3.2946 Cl        1 <0>        -0.0506
     17 C13         4.6477    4.1496    0.1787 C.ar      1 <0>         0.2633
     18 N2          3.4895    3.5229    0.0897 N.ar      1 <0>        -0.5728
     19 C14         2.3421    4.1926    0.1060 C.ar      1 <0>         0.6056
     20 N3          2.2918    5.5122    0.2062 N.ar      1 <0>        -0.5938
     21 N4          1.1585    3.4870    0.0093 N.pl3     1 <0>        -0.6281
     22 C15         1.1757    2.0869    0.0133 C.ar      1 <0>         0.1358
     23 C16         2.1234    1.4060    0.7660 C.ar      1 <0>        -0.0680
     24 C17         2.1394    0.0252    0.7698 C.ar      1 <0>        -0.1233
     25 C18         1.2089   -0.6817    0.0223 C.ar      1 <0>         0.1056
     26 C19         0.2619   -0.0022   -0.7299 C.ar      1 <0>        -0.1849
     27 C20         0.2448    1.3786   -0.7351 C.ar      1 <0>        -0.1048
     28 O2          1.2247   -2.0414    0.0273 O.3       1 <0>        -0.3133
     29 C21         0.2377   -2.7046   -0.7652 C.3       1 <0>         0.0627
     30 C22         0.4120   -4.2190   -0.6345 C.3       1 <0>        -0.1525
     31 C23        -0.6448   -4.9291   -1.4829 C.3       1 <0>        -0.0025
     32 C24        -0.7695   -6.8306    0.0109 C.3       1 <0>        -0.0487
     33 C25        -1.3127   -7.0954   -2.3337 C.3       1 <0>        -0.0426
     34 H1          1.7162    8.3647    1.4546 H         1 <0>         0.0756
     35 H2          2.1823    9.2718   -0.0042 H         1 <0>         0.0935
     36 H3          1.3510    7.7055   -0.1580 H         1 <0>         0.0947
     37 H4          6.8065    5.7624    0.3799 H         1 <0>         0.1516
     38 H5          9.1939    9.6612    2.9121 H         1 <0>         0.1448
     39 H6         10.2958   10.4856    0.8735 H         1 <0>         0.1467
     40 H7          9.3333   10.0020   -1.3378 H         1 <0>         0.1447
     41 H8          5.5758    3.5975    0.1643 H         1 <0>         0.1888
     42 H9          0.3154    3.9615   -0.0615 H         1 <0>         0.4274
     43 H10         2.8449    1.9561    1.3519 H         1 <0>         0.1458
     44 H11         2.8763   -0.5046    1.3552 H         1 <0>         0.1365
     45 H12        -0.4620   -0.5533   -1.3119 H         1 <0>         0.1290
     46 H13        -0.4923    1.9074   -1.3211 H         1 <0>         0.1317
     47 H14        -0.7564   -2.4221   -0.4187 H         1 <0>         0.0716
     48 H15         0.3547   -2.4142   -1.8092 H         1 <0>         0.0719
     49 H16         1.4061   -4.5016   -0.9810 H         1 <0>         0.0990
     50 H17         0.2950   -4.5095    0.4096 H         1 <0>         0.0990
     51 H18        -1.6389   -4.6466   -1.1364 H         1 <0>         0.1348
     52 H19        -0.5278   -4.6387   -2.5270 H         1 <0>         0.1332
     53 H20        -1.7978   -6.5738    0.2655 H         1 <0>         0.1243
     54 H21        -0.6379   -7.9106    0.0759 H         1 <0>         0.1244
     55 H22        -0.0895   -6.3392    0.7068 H         1 <0>         0.1234
     56 H23        -1.0276   -6.7965   -3.3424 H         1 <0>         0.1224
     57 H24        -1.1696   -8.1698   -2.2190 H         1 <0>         0.1244
     58 H25        -2.3607   -6.8483   -2.1641 H         1 <0>         0.1238
     59 N5         -0.4500   -6.3894   -1.3631 N.4       1 <0>        -0.3970
     60 H26         0.5316   -6.6127   -1.5653 H         1 <0>         0.4329
@<TRIPOS>BOND
     1    1    2 1
     2    1   34 1
     3    1   35 1
     4    1   36 1
     5    2    7 am
     6    2    3 1
     7    3   20 ar
     8    3    4 ar
     9    4    5 1
    10    4   17 ar
    11    5    6 2
    12    5   37 1
    13    6    7 1
    14    6    9 1
    15    7    8 2
    16    9   14 ar
    17    9   10 ar
    18   10   11 ar
    19   10   16 1
    20   11   12 ar
    21   11   38 1
    22   12   13 ar
    23   12   39 1
    24   13   14 ar
    25   13   40 1
    26   14   15 1
    27   17   18 ar
    28   17   41 1
    29   18   19 ar
    30   19   20 ar
    31   19   21 1
    32   21   22 1
    33   21   42 1
    34   22   27 ar
    35   22   23 ar
    36   23   24 ar
    37   23   43 1
    38   24   25 ar
    39   24   44 1
    40   25   26 ar
    41   25   28 1
    42   26   27 ar
    43   26   45 1
    44   27   46 1
    45   28   29 1
    46   29   30 1
    47   29   47 1
    48   29   48 1
    49   30   31 1
    50   30   49 1
    51   30   50 1
    52   31   51 1
    53   31   52 1
    54   31   59 1
    55   32   53 1
    56   32   54 1
    57   32   55 1
    58   32   59 1
    59   33   56 1
    60   33   57 1
    61   33   58 1
    62   33   59 1
    63   59   60 1
@<TRIPOS>MOLECULE
ZINC03815490
   57    60     0     0     0
SMALL
USER_CHARGES

@<TRIPOS>ATOM
      1 C1          1.8775    8.5250   -0.0210 C.3       1 <0>         0.0688
      2 N1          3.2048    7.9124   -0.1158 N.am      1 <0>        -0.5054
      3 C2          3.3189    6.5470   -0.1881 C.ar      1 <0>         0.4669
      4 C3          4.5906    5.9406   -0.2799 C.ar      1 <0>        -0.2682
      5 C4          5.7585    6.7367   -0.2981 C.2       1 <0>         0.0221
      6 C5          5.6348    8.0984   -0.2265 C.2       1 <0>        -0.1514
      7 C6          4.3008    8.6952   -0.1317 C.2       1 <0>         0.5544
      8 O1          4.1817    9.9058   -0.0671 O.2       1 <0>        -0.4938
      9 C7          6.8397    8.9603   -0.2438 C.ar      1 <0>        -0.0163
     10 C8          7.4655    9.3139    0.9522 C.ar      1 <0>        -0.0057
     11 C9          8.5907   10.1146    0.9288 C.ar      1 <0>        -0.1054
     12 C10         9.0920   10.5732   -0.2761 C.ar      1 <0>        -0.0846
     13 C11         8.4736   10.2302   -1.4650 C.ar      1 <0>        -0.1052
     14 C12         7.3503    9.4267   -1.4559 C.ar      1 <0>        -0.0060
     15 Cl1         6.5749    8.9984   -2.9489 Cl        1 <0>        -0.0505
     16 Cl2         6.8345    8.7443    2.4658 Cl        1 <0>        -0.0510
     17 C13         4.6632    4.5414   -0.3522 C.ar      1 <0>         0.2629
     18 N2          3.5400    3.8486   -0.3315 N.ar      1 <0>        -0.5744
     19 C14         2.3604    4.4534   -0.2443 C.ar      1 <0>         0.6043
     20 N3          2.2412    5.7707   -0.1788 N.ar      1 <0>        -0.5920
     21 N4          1.2158    3.6801   -0.2270 N.pl3     1 <0>        -0.6297
     22 C15         1.3147    2.2837   -0.1981 C.ar      1 <0>         0.1462
     23 C16         2.3614    1.6753    0.4821 C.ar      1 <0>        -0.0702
     24 C17         2.4580    0.2981    0.5105 C.ar      1 <0>        -0.1186
     25 C18         1.5096   -0.4776   -0.1399 C.ar      1 <0>         0.0951
     26 C19         0.4637    0.1293   -0.8196 C.ar      1 <0>        -0.1790
     27 C20         0.3659    1.5064   -0.8493 C.ar      1 <0>        -0.1058
     28 O2          1.6049   -1.8338   -0.1107 O.3       1 <0>        -0.3298
     29 C21         0.5938   -2.5702   -0.8017 C.3       1 <0>         0.0242
     30 C22         0.8665   -4.0689   -0.6582 C.3       1 <0>         0.0028
     31 C23        -0.6587   -4.5218    1.1670 C.3       1 <0>        -0.0473
     32 C24         1.4343   -5.7290    1.0105 C.3       1 <0>        -0.0427
     33 H1          1.5984    8.6269    1.0277 H         1 <0>         0.0759
     34 H2          1.8973    9.5093   -0.4890 H         1 <0>         0.0941
     35 H3          1.1491    7.8948   -0.5312 H         1 <0>         0.0949
     36 H4          6.7336    6.2778   -0.3686 H         1 <0>         0.1522
     37 H5          9.0780   10.3862    1.8535 H         1 <0>         0.1450
     38 H6          9.9699   11.2021   -0.2887 H         1 <0>         0.1471
     39 H7          8.8697   10.5919   -2.4024 H         1 <0>         0.1451
     40 H8          5.6181    4.0418   -0.4237 H         1 <0>         0.1894
     41 H9          0.3436    4.1045   -0.2349 H         1 <0>         0.4285
     42 H10         3.0972    2.2790    0.9925 H         1 <0>         0.1487
     43 H11         3.2720   -0.1752    1.0394 H         1 <0>         0.1369
     44 H12        -0.2741   -0.4753   -1.3260 H         1 <0>         0.1311
     45 H13        -0.4482    1.9788   -1.3789 H         1 <0>         0.1344
     46 H14        -0.3816   -2.3360   -0.3755 H         1 <0>         0.0853
     47 H15         0.6039   -2.2986   -1.8573 H         1 <0>         0.1085
     48 H16         0.1411   -4.6284   -1.2489 H         1 <0>         0.1500
     49 H17         1.8729   -4.2908   -1.0133 H         1 <0>         0.1412
     50 H18        -1.1808   -5.2602    0.5586 H         1 <0>         0.1252
     51 H19        -0.7164   -4.8095    2.2168 H         1 <0>         0.1247
     52 H20        -1.1237   -3.5452    1.0318 H         1 <0>         0.1190
     53 H21         2.5045   -5.6063    0.8433 H         1 <0>         0.1229
     54 H22         1.2604   -6.0340    2.0423 H         1 <0>         0.1236
     55 H23         1.0463   -6.4920    0.3357 H         1 <0>         0.1238
     56 N5          0.7624   -4.4346    0.7702 N.4       1 <0>        -0.4004
     57 H24         1.2224   -3.7103    1.3342 H         1 <0>         0.4384
@<TRIPOS>BOND
     1    1    2 1
     2    1   33 1
     3    1   34 1
     4    1   35 1
     5    2    7 am
     6    2    3 1
     7    3   20 ar
     8    3    4 ar
     9    4    5 1
    10    4   17 ar
    11    5    6 2
    12    5   36 1
    13    6    7 1
    14    6    9 1
    15    7    8 2
    16    9   14 ar
    17    9   10 ar
    18   10   11 ar
    19   10   16 1
    20   11   12 ar
    21   11   37 1
    22   12   13 ar
    23   12   38 1
    24   13   14 ar
    25   13   39 1
    26   14   15 1
    27   17   18 ar
    28   17   40 1
    29   18   19 ar
    30   19   20 ar
    31   19   21 1
    32   21   22 1
    33   21   41 1
    34   22   27 ar
    35   22   23 ar
    36   23   24 ar
    37   23   42 1
    38   24   25 ar
    39   24   43 1
    40   25   26 ar
    41   25   28 1
    42   26   27 ar
    43   26   44 1
    44   27   45 1
    45   28   29 1
    46   29   30 1
    47   29   46 1
    48   29   47 1
    49   30   48 1
    50   30   49 1
    51   30   56 1
    52   31   50 1
    53   31   51 1
    54   31   52 1
    55   31   56 1
    56   32   53 1
    57   32   54 1
    58   32   55 1
    59   32   56 1
    60   56   57 1
@<TRIPOS>MOLECULE
ZINC03815491
   64    68     0     0     0
SMALL
USER_CHARGES

@<TRIPOS>ATOM
      1 C1         -2.4742    7.3448   -1.1073 C.3       1 <0>         0.0688
      2 N1         -3.3853    6.4502   -0.3891 N.am      1 <0>        -0.5055
      3 C2         -3.0179    5.1483   -0.1596 C.ar      1 <0>         0.4669
      4 C3         -3.8841    4.2730    0.5308 C.ar      1 <0>        -0.2682
      5 C4         -5.1391    4.7317    0.9920 C.2       1 <0>         0.0221
      6 C5         -5.4970    6.0325    0.7588 C.2       1 <0>        -0.1515
      7 C6         -4.5749    6.9141    0.0395 C.2       1 <0>         0.5544
      8 O1         -4.8853    8.0729   -0.1719 O.2       1 <0>        -0.4938
      9 C7         -6.8053    6.5438    1.2299 C.ar      1 <0>        -0.0162
     10 C8         -7.9273    6.4643    0.4039 C.ar      1 <0>        -0.0057
     11 C9         -9.1450    6.9383    0.8510 C.ar      1 <0>        -0.1054
     12 C10        -9.2518    7.5000    2.1106 C.ar      1 <0>        -0.0846
     13 C11        -8.1424    7.5866    2.9323 C.ar      1 <0>        -0.1052
     14 C12        -6.9198    7.1119    2.4992 C.ar      1 <0>        -0.0060
     15 Cl1        -5.5284    7.2225    3.5315 Cl        1 <0>        -0.0505
     16 Cl2        -7.7940    5.7657   -1.1797 Cl        1 <0>        -0.0510
     17 C13        -3.4701    2.9498    0.7451 C.ar      1 <0>         0.2626
     18 N2         -2.2877    2.5766    0.2926 N.ar      1 <0>        -0.5742
     19 C14        -1.4985    3.4281   -0.3533 C.ar      1 <0>         0.6042
     20 N3         -1.8435    4.6873   -0.5750 N.ar      1 <0>        -0.5920
     21 N4         -0.2706    2.9852   -0.8054 N.pl3     1 <0>        -0.6292
     22 C15         0.0770    1.6348   -0.6776 C.ar      1 <0>         0.1460
     23 C16        -0.9027    0.6543   -0.7620 C.ar      1 <0>        -0.0713
     24 C17        -0.5590   -0.6773   -0.6363 C.ar      1 <0>        -0.1186
     25 C18         0.7645   -1.0355   -0.4262 C.ar      1 <0>         0.0953
     26 C19         1.7438   -0.0566   -0.3418 C.ar      1 <0>        -0.1789
     27 C20         1.4017    1.2754   -0.4668 C.ar      1 <0>        -0.1064
     28 O2          1.1022   -2.3469   -0.3025 O.3       1 <0>        -0.3288
     29 C21         2.4834   -2.6438   -0.0877 C.3       1 <0>         0.0251
     30 C22         2.6679   -4.1583    0.0257 C.3       1 <0>         0.0030
     31 C23         2.0411   -6.2182   -1.0810 C.3       1 <0>        -0.0015
     32 C24         1.5568   -6.8091   -2.4069 C.3       1 <0>        -0.1481
     33 C25         2.6408   -6.6183   -3.4714 C.3       1 <0>        -0.1389
     34 C26         2.9605   -5.1265   -3.6014 C.3       1 <0>        -0.1474
     35 C27         3.4041   -4.5844   -2.2408 C.3       1 <0>        -0.0059
     36 H1         -2.6775    7.2884   -2.1766 H         1 <0>         0.0759
     37 H2         -2.6231    8.3681   -0.7626 H         1 <0>         0.0941
     38 H3         -1.4441    7.0436   -0.9169 H         1 <0>         0.0949
     39 H4         -5.8053    4.0663    1.5210 H         1 <0>         0.1522
     40 H5        -10.0150    6.8741    0.2142 H         1 <0>         0.1450
     41 H6        -10.2055    7.8730    2.4539 H         1 <0>         0.1471
     42 H7         -8.2323    8.0266    3.9145 H         1 <0>         0.1451
     43 H8         -4.1054    2.2513    1.2695 H         1 <0>         0.1894
     44 H9          0.3508    3.6096   -1.2113 H         1 <0>         0.4284
     45 H10        -1.9325    0.9327   -0.9303 H         1 <0>         0.1497
     46 H11        -1.3208   -1.4400   -0.7019 H         1 <0>         0.1366
     47 H12         2.7740   -0.3363   -0.1779 H         1 <0>         0.1309
     48 H13         2.1641    2.0374   -0.4007 H         1 <0>         0.1342
     49 H14         3.0704   -2.2680   -0.9258 H         1 <0>         0.0845
     50 H15         2.8185   -2.1669    0.8333 H         1 <0>         0.1086
     51 H16         3.7043   -4.3801    0.2802 H         1 <0>         0.1495
     52 H17         2.0115   -4.5470    0.8042 H         1 <0>         0.1412
     53 H18         2.9450   -6.7366   -0.7609 H         1 <0>         0.1303
     54 H19         1.2658   -6.3397   -0.3245 H         1 <0>         0.1291
     55 H20         0.6452   -6.3004   -2.7206 H         1 <0>         0.0878
     56 H21         1.3547   -7.8727   -2.2799 H         1 <0>         0.1125
     57 H22         2.2829   -6.9989   -4.4280 H         1 <0>         0.0941
     58 H23         3.5403   -7.1594   -3.1776 H         1 <0>         0.0818
     59 H24         2.0710   -4.5914   -3.9339 H         1 <0>         0.0875
     60 H25         3.7618   -4.9880   -4.3272 H         1 <0>         0.1118
     61 H26         3.6188   -3.5192   -2.3267 H         1 <0>         0.1249
     62 H27         4.3015   -5.1106   -1.9154 H         1 <0>         0.1315
     63 N5          2.3081   -4.7760   -1.2674 N.4       1 <0>        -0.3960
     64 H28         1.4597   -4.3241   -1.6281 H         1 <0>         0.4337
@<TRIPOS>BOND
     1    1    2 1
     2    1   36 1
     3    1   37 1
     4    1   38 1
     5    2    7 am
     6    2    3 1
     7    3   20 ar
     8    3    4 ar
     9    4    5 1
    10    4   17 ar
    11    5    6 2
    12    5   39 1
    13    6    7 1
    14    6    9 1
    15    7    8 2
    16    9   14 ar
    17    9   10 ar
    18   10   11 ar
    19   10   16 1
    20   11   12 ar
    21   11   40 1
    22   12   13 ar
    23   12   41 1
    24   13   14 ar
    25   13   42 1
    26   14   15 1
    27   17   18 ar
    28   17   43 1
    29   18   19 ar
    30   19   20 ar
    31   19   21 1
    32   21   22 1
    33   21   44 1
    34   22   27 ar
    35   22   23 ar
    36   23   24 ar
    37   23   45 1
    38   24   25 ar
    39   24   46 1
    40   25   26 ar
    41   25   28 1
    42   26   27 ar
    43   26   47 1
    44   27   48 1
    45   28   29 1
    46   29   30 1
    47   29   49 1
    48   29   50 1
    49   30   51 1
    50   30   52 1
    51   30   63 1
    52   31   32 1
    53   31   53 1
    54   31   54 1
    55   31   63 1
    56   32   33 1
    57   32   55 1
    58   32   56 1
    59   33   34 1
    60   33   57 1
    61   33   58 1
    62   34   35 1
    63   34   59 1
    64   34   60 1
    65   35   61 1
    66   35   62 1
    67   35   63 1
    68   63   64 1
@<TRIPOS>MOLECULE
ZINC03815492
   66    69     0     0     0
SMALL
USER_CHARGES

@<TRIPOS>ATOM
      1 C1         -0.8153   -7.4496   -0.3659 C.3       1 <0>        -0.1897
      2 C2          0.3035   -7.0440   -1.3276 C.3       1 <0>        -0.0154
      3 N1          0.6749   -5.6437   -1.0839 N.4       1 <0>        -0.2672
      4 C3          1.7490   -5.2543   -2.0072 C.3       1 <0>        -0.0563
      5 C4         -0.4946   -4.7819   -1.3018 C.3       1 <0>        -0.0169
      6 C5         -1.0802   -5.0578   -2.6882 C.3       1 <0>        -0.1895
      7 C6          1.1416   -5.4948    0.3010 C.3       1 <0>        -0.0062
      8 C7          1.4765   -4.0266    0.5713 C.3       1 <0>         0.0280
      9 O1          0.2727   -3.2565    0.5757 O.3       1 <0>        -0.3206
     10 C8          0.3948   -1.9214    0.8033 C.ar      1 <0>         0.0909
     11 C9         -0.7339   -1.1152    0.8211 C.ar      1 <0>        -0.1190
     12 C10        -0.6107    0.2408    1.0512 C.ar      1 <0>        -0.0698
     13 C11         0.6435    0.7973    1.2653 C.ar      1 <0>         0.1460
     14 C12         1.7729   -0.0106    1.2478 C.ar      1 <0>        -0.1053
     15 C13         1.6480   -1.3664    1.0171 C.ar      1 <0>        -0.1789
     16 N2          0.7694    2.1722    1.4983 N.pl3     1 <0>        -0.6300
     17 C14        -0.2152    2.8480    2.1926 C.ar      1 <0>         0.6043
     18 N3         -1.2126    2.1526    2.7287 N.ar      1 <0>        -0.5738
     19 C15        -2.1778    2.7502    3.4014 C.ar      1 <0>         0.2630
     20 C16        -2.1334    4.1457    3.5430 C.ar      1 <0>        -0.2684
     21 C17        -3.1380    4.8421    4.2528 C.2       1 <0>         0.0222
     22 C18        -3.0496    6.2040    4.3635 C.2       1 <0>        -0.1516
     23 C19        -1.9208    6.9037    3.7462 C.2       1 <0>         0.5544
     24 O2         -1.8342    8.1151    3.8401 O.2       1 <0>        -0.4939
     25 N4         -0.9778    6.2144    3.0756 N.am      1 <0>        -0.5054
     26 C20        -1.0582    4.8496    2.9596 C.ar      1 <0>         0.4666
     27 N5         -0.1276    4.1645    2.3041 N.ar      1 <0>        -0.5921
     28 C21         0.1454    6.9291    2.4642 C.3       1 <0>         0.0688
     29 C22        -4.0867    6.9629    5.1006 C.ar      1 <0>        -0.0161
     30 C23        -5.2084    7.4504    4.4288 C.ar      1 <0>        -0.0058
     31 C24        -6.1738    8.1534    5.1227 C.ar      1 <0>        -0.1054
     32 C25        -6.0257    8.3829    6.4788 C.ar      1 <0>        -0.0846
     33 C26        -4.9136    7.9069    7.1496 C.ar      1 <0>        -0.1053
     34 C27        -3.9433    7.1983    6.4685 C.ar      1 <0>        -0.0060
     35 Cl1        -2.5481    6.6023    7.3122 Cl        1 <0>        -0.0505
     36 Cl2        -5.3928    7.1692    2.7257 Cl        1 <0>        -0.0511
     37 H1         -0.4690   -7.3391    0.6617 H         1 <0>         0.0801
     38 H2         -1.6830   -6.8102   -0.5277 H         1 <0>         0.0822
     39 H3         -1.0908   -8.4886   -0.5467 H         1 <0>         0.1046
     40 H4         -0.0428   -7.1545   -2.3552 H         1 <0>         0.1322
     41 H5          1.1713   -7.6835   -1.1658 H         1 <0>         0.1271
     42 H6          2.5994   -5.9239   -1.8785 H         1 <0>         0.1230
     43 H7          1.3874   -5.3193   -3.0334 H         1 <0>         0.1255
     44 H8          2.0573   -4.2306   -1.7947 H         1 <0>         0.1208
     45 H9         -1.2470   -4.9912   -0.5414 H         1 <0>         0.1297
     46 H10        -0.1929   -3.7366   -1.2363 H         1 <0>         0.1429
     47 H11        -0.3278   -4.8485   -3.4486 H         1 <0>         0.0775
     48 H12        -1.3819   -6.1031   -2.7537 H         1 <0>         0.0794
     49 H13        -1.9479   -4.4183   -2.8499 H         1 <0>         0.1035
     50 H14         2.0326   -6.1044    0.4517 H         1 <0>         0.1469
     51 H15         0.3584   -5.8208    0.9854 H         1 <0>         0.1424
     52 H16         2.1419   -3.6562   -0.2086 H         1 <0>         0.0857
     53 H17         1.9678   -3.9384    1.5402 H         1 <0>         0.1083
     54 H18        -1.7092   -1.5481    0.6546 H         1 <0>         0.1362
     55 H19        -1.4890    0.8692    1.0603 H         1 <0>         0.1466
     56 H20         2.7486    0.4213    1.4146 H         1 <0>         0.1338
     57 H21         2.5262   -1.9948    1.0034 H         1 <0>         0.1306
     58 H22         1.5479    2.6501    1.1721 H         1 <0>         0.4283
     59 H23        -2.9846    2.1774    3.8343 H         1 <0>         0.1892
     60 H24        -3.9630    4.3082    4.7008 H         1 <0>         0.1521
     61 H25        -0.1158    7.2120    1.4444 H         1 <0>         0.0759
     62 H26         0.3652    7.8251    3.0447 H         1 <0>         0.0941
     63 H27         1.0225    6.2821    2.4485 H         1 <0>         0.0949
     64 H28        -7.0444    8.5277    4.6048 H         1 <0>         0.1450
     65 H29        -6.7816    8.9364    7.0160 H         1 <0>         0.1471
     66 H30        -4.8036    8.0901    8.2083 H         1 <0>         0.1451
@<TRIPOS>BOND
     1    1    2 1
     2    1   37 1
     3    1   38 1
     4    1   39 1
     5    2    3 1
     6    2   40 1
     7    2   41 1
     8    3    4 1
     9    3    5 1
    10    3    7 1
    11    4   42 1
    12    4   43 1
    13    4   44 1
    14    5    6 1
    15    5   45 1
    16    5   46 1
    17    6   47 1
    18    6   48 1
    19    6   49 1
    20    7    8 1
    21    7   50 1
    22    7   51 1
    23    8    9 1
    24    8   52 1
    25    8   53 1
    26    9   10 1
    27   10   15 ar
    28   10   11 ar
    29   11   12 ar
    30   11   54 1
    31   12   13 ar
    32   12   55 1
    33   13   14 ar
    34   13   16 1
    35   14   15 ar
    36   14   56 1
    37   15   57 1
    38   16   17 1
    39   16   58 1
    40   17   27 ar
    41   17   18 ar
    42   18   19 ar
    43   19   20 ar
    44   19   59 1
    45   20   26 ar
    46   20   21 1
    47   21   22 2
    48   21   60 1
    49   22   23 1
    50   22   29 1
    51   23   24 2
    52   23   25 am
    53   25   26 1
    54   25   28 1
    55   26   27 ar
    56   28   61 1
    57   28   62 1
    58   28   63 1
    59   29   34 ar
    60   29   30 ar
    61   30   31 ar
    62   30   36 1
    63   31   32 ar
    64   31   64 1
    65   32   33 ar
    66   32   65 1
    67   33   34 ar
    68   33   66 1
    69   34   35 1
@<TRIPOS>MOLECULE
ZINC03815493
   60    64     0     0     0
SMALL
USER_CHARGES

@<TRIPOS>ATOM
      1 C1         -3.1412    0.0541   -6.3155 C.3       1 <0>         0.0649
      2 N1         -3.6737    0.6221   -7.5565 N.am      1 <0>        -0.5205
      3 C2         -3.8041    1.9861   -7.6820 C.ar      1 <0>         0.2672
      4 C3         -3.4382    2.8395   -6.6479 C.ar      1 <0>        -0.2914
      5 C4         -3.5893    4.2079   -6.8228 C.ar      1 <0>         0.4335
      6 N2         -4.0793    4.7094   -7.9519 N.ar      1 <0>        -0.5467
      7 C5         -4.4348    3.9457   -8.9616 C.ar      1 <0>         0.2329
      8 C6         -4.3157    2.5532   -8.8698 C.ar      1 <0>        -0.2231
      9 C7         -4.6986    1.7157   -9.9440 C.2       1 <0>         0.0213
     10 C8         -4.5658    0.3602   -9.8115 C.2       1 <0>        -0.1570
     11 C9         -4.0322   -0.1955   -8.5658 C.2       1 <0>         0.5516
     12 O1         -3.9117   -1.4014   -8.4420 O.2       1 <0>        -0.5070
     13 C10        -4.9597   -0.5394  -10.9207 C.ar      1 <0>        -0.0142
     14 C11        -6.2623   -1.0347  -10.9924 C.ar      1 <0>        -0.0065
     15 C12        -6.6243   -1.8691  -12.0318 C.ar      1 <0>        -0.1060
     16 C13        -5.6960   -2.2225  -12.9945 C.ar      1 <0>        -0.0858
     17 C14        -4.4017   -1.7392  -12.9264 C.ar      1 <0>        -0.1056
     18 C15        -4.0281   -0.8998  -11.8952 C.ar      1 <0>        -0.0068
     19 Cl1        -2.4031   -0.2948  -11.8113 Cl        1 <0>        -0.0506
     20 Cl2        -7.4270   -0.5978   -9.7815 Cl        1 <0>        -0.0524
     21 N3         -3.2271    5.0690   -5.7968 N.pl3     1 <0>        -0.6589
     22 C16        -2.8766    4.5551   -4.5423 C.ar      1 <0>         0.1605
     23 C17        -1.7840    5.0740   -3.8599 C.ar      1 <0>        -0.1152
     24 C18        -1.4387    4.5675   -2.6227 C.ar      1 <0>        -0.0991
     25 C19        -2.1839    3.5392   -2.0607 C.ar      1 <0>         0.0697
     26 C20        -3.2730    3.0164   -2.7456 C.ar      1 <0>        -0.1361
     27 C21        -3.6218    3.5267   -3.9803 C.ar      1 <0>        -0.1216
     28 N4         -1.8338    3.0258   -0.8067 N.pl3     1 <0>        -0.4847
     29 C22        -2.7503    1.9501   -0.4035 C.3       1 <0>         0.0183
     30 C23        -2.2877    1.3633    0.9322 C.3       1 <0>         0.0019
     31 C24        -1.3344    3.5029    1.5420 C.3       1 <0>         0.0015
     32 C25        -1.7970    4.0898    0.2063 C.3       1 <0>         0.0240
     33 C26        -1.8828    1.8878    3.2615 C.3       1 <0>        -0.0410
     34 H1         -3.9612   -0.1426   -5.6248 H         1 <0>         0.0735
     35 H2         -2.6208   -0.8778   -6.5364 H         1 <0>         0.0964
     36 H3         -2.4455    0.7601   -5.8620 H         1 <0>         0.0829
     37 H4         -3.0425    2.4444   -5.7238 H         1 <0>         0.1497
     38 H5         -4.8244    4.3937   -9.8638 H         1 <0>         0.1793
     39 H6         -5.0908    2.1406  -10.8562 H         1 <0>         0.1490
     40 H7         -7.6334   -2.2496  -12.0909 H         1 <0>         0.1444
     41 H8         -5.9830   -2.8789  -13.8027 H         1 <0>         0.1467
     42 H9         -3.6818   -2.0186  -13.6814 H         1 <0>         0.1447
     43 H10        -3.2167    6.0270   -5.9486 H         1 <0>         0.4220
     44 H11        -1.2047    5.8739   -4.2967 H         1 <0>         0.1380
     45 H12        -0.5892    4.9713   -2.0919 H         1 <0>         0.1341
     46 H13        -3.8497    2.2135   -2.3107 H         1 <0>         0.1320
     47 H14        -4.4717    3.1234   -4.5108 H         1 <0>         0.1358
     48 H15        -2.7506    1.1687   -1.1634 H         1 <0>         0.1295
     49 H16        -3.7576    2.3523   -0.2946 H         1 <0>         0.0714
     50 H17        -2.9824    0.5848    1.2475 H         1 <0>         0.1380
     51 H18        -1.2914    0.9365    0.8163 H         1 <0>         0.1407
     52 H19        -0.3272    3.1008    1.4331 H         1 <0>         0.1407
     53 H20        -1.3338    4.2845    2.3018 H         1 <0>         0.1380
     54 H21        -1.1023    4.8683   -0.1090 H         1 <0>         0.1281
     55 H22        -2.7934    4.5165    0.3219 H         1 <0>         0.0696
     56 H23        -0.8969    1.4266    3.2026 H         1 <0>         0.1247
     57 H24        -1.8627    2.6960    3.9926 H         1 <0>         0.1234
     58 H25        -2.6158    1.1407    3.5658 H         1 <0>         0.1232
     59 N5         -2.2763    2.4379    1.9467 N.4       1 <0>        -0.4000
     60 H26        -3.2195    2.8369    2.0209 H         1 <0>         0.4275
@<TRIPOS>BOND
     1    1    2 1
     2    1   34 1
     3    1   35 1
     4    1   36 1
     5    2   11 am
     6    2    3 1
     7    3    8 ar
     8    3    4 ar
     9    4    5 ar
    10    4   37 1
    11    5    6 ar
    12    5   21 1
    13    6    7 ar
    14    7    8 ar
    15    7   38 1
    16    8    9 1
    17    9   10 2
    18    9   39 1
    19   10   11 1
    20   10   13 1
    21   11   12 2
    22   13   18 ar
    23   13   14 ar
    24   14   15 ar
    25   14   20 1
    26   15   16 ar
    27   15   40 1
    28   16   17 ar
    29   16   41 1
    30   17   18 ar
    31   17   42 1
    32   18   19 1
    33   21   22 1
    34   21   43 1
    35   22   27 ar
    36   22   23 ar
    37   23   24 ar
    38   23   44 1
    39   24   25 ar
    40   24   45 1
    41   25   26 ar
    42   25   28 1
    43   26   27 ar
    44   26   46 1
    45   27   47 1
    46   28   32 1
    47   28   29 1
    48   29   30 1
    49   29   48 1
    50   29   49 1
    51   30   50 1
    52   30   51 1
    53   30   59 1
    54   31   32 1
    55   31   52 1
    56   31   53 1
    57   31   59 1
    58   32   54 1
    59   32   55 1
    60   33   56 1
    61   33   57 1
    62   33   58 1
    63   33   59 1
    64   59   60 1
@<TRIPOS>MOLECULE
ZINC03815495
   60    63     0     0     0
SMALL
USER_CHARGES

@<TRIPOS>ATOM
      1 C1         -3.5289   -2.5681    0.7066 C.3       1 <0>        -0.1896
      2 C2         -2.4570   -2.8447   -0.3495 C.3       1 <0>        -0.0080
      3 C3         -0.7459   -3.6183    1.1790 C.3       1 <0>        -0.0062
      4 C4          0.3538   -3.0847    2.0992 C.3       1 <0>        -0.1926
      5 C5         -0.1211   -2.4397   -0.8417 C.3       1 <0>         0.1679
      6 O1          0.9654   -1.6424   -0.3665 O.3       1 <0>        -0.2871
      7 C6          0.7677   -0.2981   -0.3134 C.ar      1 <0>         0.0584
      8 C7          1.7489    0.5265    0.2173 C.ar      1 <0>        -0.1002
      9 C8          1.5485    1.8917    0.2724 C.ar      1 <0>        -0.0670
     10 C9          0.3646    2.4391   -0.2041 C.ar      1 <0>         0.1593
     11 C10        -0.6170    1.6130   -0.7356 C.ar      1 <0>        -0.1025
     12 C11        -0.4152    0.2480   -0.7896 C.ar      1 <0>        -0.1974
     13 N1          0.1605    3.8232   -0.1481 N.pl3     1 <0>        -0.6311
     14 C12         1.2285    4.6857   -0.3022 C.ar      1 <0>         0.6019
     15 N2          2.4290    4.1780   -0.5610 N.ar      1 <0>        -0.5762
     16 C13         3.4815    4.9585   -0.7169 C.ar      1 <0>         0.2634
     17 C14         3.3109    6.3468   -0.6039 C.ar      1 <0>        -0.2638
     18 C15         4.4002    7.2338   -0.7611 C.2       1 <0>         0.0193
     19 C16         4.1823    8.5803   -0.6418 C.2       1 <0>        -0.1471
     20 C17         2.8312    9.0674   -0.3554 C.2       1 <0>         0.5538
     21 O2          2.6284   10.2637   -0.2481 O.2       1 <0>        -0.4913
     22 N3          1.8117    8.1992   -0.2105 N.am      1 <0>        -0.5052
     23 C18         2.0207    6.8483   -0.3282 C.ar      1 <0>         0.4665
     24 N4          1.0175    5.9881   -0.1919 N.ar      1 <0>        -0.5897
     25 C19         0.4659    8.7025    0.0754 C.3       1 <0>         0.0685
     26 C20         5.3033    9.5358   -0.8007 C.ar      1 <0>        -0.0183
     27 C21         6.0560    9.9236    0.3085 C.ar      1 <0>        -0.0054
     28 C22         7.1025   10.8115    0.1528 C.ar      1 <0>        -0.1050
     29 C23         7.3990   11.3234   -1.0975 C.ar      1 <0>        -0.0837
     30 C24         6.6535   10.9471   -2.2003 C.ar      1 <0>        -0.1050
     31 C25         5.6074   10.0564   -2.0592 C.ar      1 <0>        -0.0057
     32 Cl1         4.6726    9.5859   -3.4442 Cl        1 <0>        -0.0506
     33 Cl2         5.6813    9.2874    1.8797 Cl        1 <0>        -0.0508
     34 H1         -3.3479   -3.1938    1.5806 H         1 <0>         0.0819
     35 H2         -3.4903   -1.5182    0.9972 H         1 <0>         0.0806
     36 H3         -4.5121   -2.7951    0.2945 H         1 <0>         0.1094
     37 H4         -2.6214   -2.1986   -1.2119 H         1 <0>         0.1282
     38 H5         -2.5143   -3.8877   -0.6607 H         1 <0>         0.1371
     39 H6         -1.6138   -3.8997    1.7753 H         1 <0>         0.1290
     40 H7         -0.3770   -4.4909    0.6400 H         1 <0>         0.1328
     41 H8          0.6689   -3.8725    2.7835 H         1 <0>         0.1040
     42 H9          1.2050   -2.7626    1.4994 H         1 <0>         0.0922
     43 H10        -0.0290   -2.2390    2.6704 H         1 <0>         0.0759
     44 H11        -0.5705   -1.9601   -1.7113 H         1 <0>         0.1324
     45 H12         0.2474   -3.4267   -1.1210 H         1 <0>         0.1745
     46 H13         2.6696    0.1006    0.5878 H         1 <0>         0.1446
     47 H14         2.3106    2.5330    0.6900 H         1 <0>         0.1564
     48 H15        -1.5379    2.0380   -1.1067 H         1 <0>         0.1387
     49 H16        -1.1785   -0.3946   -1.2030 H         1 <0>         0.1238
     50 H17        -0.7309    4.1764   -0.0012 H         1 <0>         0.4296
     51 H18         4.4536    4.5377   -0.9274 H         1 <0>         0.1909
     52 H19         5.3895    6.8551   -0.9717 H         1 <0>         0.1534
     53 H20         0.3244    8.7692    1.1541 H         1 <0>         0.0765
     54 H21         0.3456    9.6907   -0.3686 H         1 <0>         0.0948
     55 H22        -0.2737    8.0221   -0.3467 H         1 <0>         0.0947
     56 H23         7.6885   11.1093    1.0098 H         1 <0>         0.1455
     57 H24         8.2160   12.0203   -1.2133 H         1 <0>         0.1475
     58 H25         6.8896   11.3510   -3.1737 H         1 <0>         0.1455
     59 N5         -1.1305   -2.5503    0.2323 N.4       1 <0>        -0.4263
     60 H26        -1.1787   -1.6579    0.7379 H         1 <0>         0.4270
@<TRIPOS>BOND
     1    1    2 1
     2    1   34 1
     3    1   35 1
     4    1   36 1
     5    2   37 1
     6    2   38 1
     7    2   59 1
     8    3    4 1
     9    3   39 1
    10    3   40 1
    11    3   59 1
    12    4   41 1
    13    4   42 1
    14    4   43 1
    15    5    6 1
    16    5   44 1
    17    5   45 1
    18    5   59 1
    19    6    7 1
    20    7   12 ar
    21    7    8 ar
    22    8    9 ar
    23    8   46 1
    24    9   10 ar
    25    9   47 1
    26   10   11 ar
    27   10   13 1
    28   11   12 ar
    29   11   48 1
    30   12   49 1
    31   13   14 1
    32   13   50 1
    33   14   24 ar
    34   14   15 ar
    35   15   16 ar
    36   16   17 ar
    37   16   51 1
    38   17   23 ar
    39   17   18 1
    40   18   19 2
    41   18   52 1
    42   19   20 1
    43   19   26 1
    44   20   21 2
    45   20   22 am
    46   22   23 1
    47   22   25 1
    48   23   24 ar
    49   25   53 1
    50   25   54 1
    51   25   55 1
    52   26   31 ar
    53   26   27 ar
    54   27   28 ar
    55   27   33 1
    56   28   29 ar
    57   28   56 1
    58   29   30 ar
    59   29   57 1
    60   30   31 ar
    61   30   58 1
    62   31   32 1
    63   59   60 1
@<TRIPOS>MOLECULE
ZINC03815496
   63    66     0     0     0
SMALL
USER_CHARGES

@<TRIPOS>ATOM
      1 C1          3.3701   -6.4009   -1.6428 C.3       1 <0>        -0.1652
      2 C2          2.0772   -5.6702   -2.0107 C.3       1 <0>         0.0095
      3 N1          2.2699   -4.2228   -1.8496 N.4       1 <0>        -0.1157
      4 C3          1.0167   -3.5240   -2.1643 C.3       1 <0>         0.0131
      5 C4          0.5330   -3.9449   -3.5534 C.3       1 <0>        -0.1657
      6 C5          2.6579   -3.9319   -0.4629 C.3       1 <0>         0.0190
      7 C6          2.8370   -2.4224   -0.2895 C.3       1 <0>         0.0481
      8 O1          1.5656   -1.7774   -0.3882 O.3       1 <0>        -0.3174
      9 C7          1.5479   -0.4242   -0.2556 C.ar      1 <0>         0.1181
     10 C8          0.3470    0.2650   -0.3408 C.ar      1 <0>        -0.1309
     11 C9          0.3283    1.6393   -0.2072 C.ar      1 <0>        -0.0677
     12 C10         1.5119    2.3313    0.0132 C.ar      1 <0>         0.1202
     13 C11         2.7135    1.6406    0.0988 C.ar      1 <0>        -0.0999
     14 C12         2.7306    0.2663   -0.0355 C.ar      1 <0>        -0.1828
     15 N2          1.4938    3.7249    0.1484 N.pl3     1 <0>        -0.6236
     16 C13         0.4203    4.3459    0.7568 C.ar      1 <0>         0.6092
     17 N3         -0.5250    3.5935    1.3101 N.ar      1 <0>        -0.5689
     18 C14        -1.5707    4.1372    1.9036 C.ar      1 <0>         0.2651
     19 C15        -1.6691    5.5366    1.9415 C.ar      1 <0>        -0.2787
     20 C16        -2.7651    6.1772    2.5632 C.2       1 <0>         0.0314
     21 C17        -2.8152    7.5454    2.5742 C.2       1 <0>        -0.1651
     22 C18        -1.7364    8.3095    1.9441 C.2       1 <0>         0.5570
     23 O2         -1.7728    9.5270    1.9497 O.2       1 <0>        -0.5018
     24 N4         -0.7039    7.6726    1.3589 N.am      1 <0>        -0.5060
     25 C19        -0.6453    6.3019    1.3430 C.ar      1 <0>         0.4674
     26 N5          0.3738    5.6690    0.7721 N.ar      1 <0>        -0.5973
     27 C20         0.3677    8.4514    0.7333 C.3       1 <0>         0.0699
     28 C21        -3.9509    8.2466    3.2174 C.ar      1 <0>        -0.0098
     29 C22        -5.0868    8.5694    2.4739 C.ar      1 <0>        -0.0064
     30 C23        -6.1437    9.2193    3.0806 C.ar      1 <0>        -0.1065
     31 C24        -6.0741    9.5587    4.4198 C.ar      1 <0>        -0.0875
     32 C25        -4.9488    9.2463    5.1612 C.ar      1 <0>        -0.1065
     33 C26        -3.8869    8.5922    4.5678 C.ar      1 <0>        -0.0066
     34 Cl1        -2.4753    8.2016    5.4998 Cl        1 <0>        -0.0504
     35 Cl2        -5.1734    8.1503    0.7915 Cl        1 <0>        -0.0502
     36 O3          3.3235   -3.7672   -2.7566 O.3       1 <0>        -0.6431
     37 H1          4.1948   -5.9989   -2.2313 H         1 <0>         0.0858
     38 H2          3.5780   -6.2598   -0.5822 H         1 <0>         0.0590
     39 H3          3.2586   -7.4647   -1.8527 H         1 <0>         0.0743
     40 H4          1.2721   -6.0046   -1.3565 H         1 <0>         0.0846
     41 H5          1.8183   -5.8892   -3.0467 H         1 <0>         0.1080
     42 H6          0.2607   -3.7819   -1.4227 H         1 <0>         0.0837
     43 H7          1.1875   -2.4475   -2.1498 H         1 <0>         0.1216
     44 H8         -0.3969   -3.4264   -3.7869 H         1 <0>         0.0734
     45 H9          1.2890   -3.6869   -4.2950 H         1 <0>         0.0799
     46 H10         0.3622   -5.0214   -3.5679 H         1 <0>         0.0596
     47 H11         3.5961   -4.4377   -0.2344 H         1 <0>         0.1245
     48 H12         1.8802   -4.2857    0.2138 H         1 <0>         0.0969
     49 H13         3.4983   -2.0430   -1.0685 H         1 <0>         0.0971
     50 H14         3.2730   -2.2182    0.6884 H         1 <0>         0.0808
     51 H15        -0.5734   -0.2734   -0.5122 H         1 <0>         0.1345
     52 H16        -0.6061    2.1762   -0.2784 H         1 <0>         0.1406
     53 H17         3.6344    2.1780    0.2705 H         1 <0>         0.1294
     54 H18         3.6651   -0.2710    0.0311 H         1 <0>         0.1334
     55 H19         2.2350    4.2542   -0.1852 H         1 <0>         0.4263
     56 H20        -2.3343    3.5184    2.3511 H         1 <0>         0.1878
     57 H21        -3.5513    5.5961    3.0222 H         1 <0>         0.1502
     58 H22         0.1217    8.6330   -0.3129 H         1 <0>         0.0746
     59 H23         0.4749    9.4041    1.2520 H         1 <0>         0.0920
     60 H24         1.3039    7.8966    0.7954 H         1 <0>         0.0950
     61 H25        -7.0251    9.4661    2.5074 H         1 <0>         0.1437
     62 H26        -6.9018   10.0702    4.8885 H         1 <0>         0.1453
     63 H27        -4.9004    9.5146    6.2062 H         1 <0>         0.1437
@<TRIPOS>BOND
     1    1    2 1
     2    1   37 1
     3    1   38 1
     4    1   39 1
     5    2    3 1
     6    2   40 1
     7    2   41 1
     8    3    4 1
     9    3    6 1
    10    3   36 1
    11    4    5 1
    12    4   42 1
    13    4   43 1
    14    5   44 1
    15    5   45 1
    16    5   46 1
    17    6    7 1
    18    6   47 1
    19    6   48 1
    20    7    8 1
    21    7   49 1
    22    7   50 1
    23    8    9 1
    24    9   14 ar
    25    9   10 ar
    26   10   11 ar
    27   10   51 1
    28   11   12 ar
    29   11   52 1
    30   12   13 ar
    31   12   15 1
    32   13   14 ar
    33   13   53 1
    34   14   54 1
    35   15   16 1
    36   15   55 1
    37   16   26 ar
    38   16   17 ar
    39   17   18 ar
    40   18   19 ar
    41   18   56 1
    42   19   25 ar
    43   19   20 1
    44   20   21 2
    45   20   57 1
    46   21   22 1
    47   21   28 1
    48   22   23 2
    49   22   24 am
    50   24   25 1
    51   24   27 1
    52   25   26 ar
    53   27   58 1
    54   27   59 1
    55   27   60 1
    56   28   33 ar
    57   28   29 ar
    58   29   30 ar
    59   29   35 1
    60   30   31 ar
    61   30   61 1
    62   31   32 ar
    63   31   62 1
    64   32   33 ar
    65   32   63 1
    66   33   34 1
@<TRIPOS>MOLECULE
ZINC03815497
   63    67     0     0     0
SMALL
USER_CHARGES

@<TRIPOS>ATOM
      1 C1         -4.6629    5.0294   10.9842 C.3       1 <0>         0.0670
      2 N1         -4.8082    3.5759   10.8730 N.am      1 <0>        -0.5043
      3 C2         -4.2124    2.9117    9.8308 C.ar      1 <0>         0.4647
      4 C3         -4.3425    1.5112    9.7090 C.ar      1 <0>        -0.2504
      5 C4         -5.0891    0.7807   10.6615 C.2       1 <0>         0.0083
      6 C5         -5.6797    1.4520   11.6984 C.2       1 <0>        -0.1314
      7 C6         -5.5250    2.9051   11.7952 C.2       1 <0>         0.5506
      8 O1         -6.0468    3.5102   12.7148 O.2       1 <0>        -0.4823
      9 C7         -6.4687    0.7151   12.7130 C.ar      1 <0>        -0.0254
     10 C8         -7.8386    0.5220   12.5306 C.ar      1 <0>        -0.0046
     11 C9         -8.5676   -0.1692   13.4784 C.ar      1 <0>        -0.1040
     12 C10        -7.9444   -0.6616   14.6109 C.ar      1 <0>        -0.0804
     13 C11        -6.5877   -0.4695   14.8001 C.ar      1 <0>        -0.1034
     14 C12        -5.8463    0.2162   13.8579 C.ar      1 <0>        -0.0050
     15 Cl1        -4.1439    0.4573   14.0977 Cl        1 <0>        -0.0501
     16 Cl2        -8.6238    1.1444   11.1129 Cl        1 <0>        -0.0524
     17 C13        -3.7173    0.8705    8.6288 C.ar      1 <0>         0.2590
     18 N2         -3.0327    1.6029    7.7702 N.ar      1 <0>        -0.5772
     19 C14        -2.9316    2.9194    7.9165 C.ar      1 <0>         0.5925
     20 N3         -3.4996    3.5676    8.9219 N.ar      1 <0>        -0.5824
     21 N4         -2.2022    3.6381    6.9887 N.pl3     1 <0>        -0.6349
     22 C15        -1.6845    2.9979    5.8588 C.ar      1 <0>         0.2264
     23 C16        -2.3855    1.9546    5.2675 C.ar      1 <0>        -0.1136
     24 C17        -1.8711    1.3241    4.1517 C.ar      1 <0>        -0.0637
     25 C18        -0.6595    1.7303    3.6230 C.ar      1 <0>        -0.2089
     26 C19         0.0434    2.7652    4.2124 C.ar      1 <0>        -0.0704
     27 C20        -0.4679    3.4035    5.3253 C.ar      1 <0>        -0.1499
     28 C21        -0.1010    1.0397    2.4056 C.3       1 <0>         0.0553
     29 C22         0.1264    1.2293    0.0020 C.3       1 <0>        -0.0263
     30 C23        -0.4534    1.9029   -1.2440 C.3       1 <0>        -0.0266
     31 C24        -1.0230    3.8513    0.0743 C.3       1 <0>        -0.0255
     32 C25        -0.4432    3.1777    1.3204 C.3       1 <0>        -0.0338
     33 C26        -0.7947    4.0408   -2.3292 C.3       1 <0>        -0.0460
     34 H1         -5.4748    5.5180   10.4454 H         1 <0>         0.0779
     35 H2         -4.6980    5.3188   12.0345 H         1 <0>         0.0973
     36 H3         -3.7079    5.3330   10.5554 H         1 <0>         0.0949
     37 H4         -5.1920   -0.2907   10.5727 H         1 <0>         0.1556
     38 H5         -9.6273   -0.3227   13.3367 H         1 <0>         0.1469
     39 H6         -8.5197   -1.1982   15.3509 H         1 <0>         0.1495
     40 H7         -6.1072   -0.8561   15.6867 H         1 <0>         0.1472
     41 H8         -3.7941   -0.1993    8.5026 H         1 <0>         0.1922
     42 H9         -2.0493    4.5867    7.1214 H         1 <0>         0.4329
     43 H10        -3.3316    1.6367    5.6801 H         1 <0>         0.1511
     44 H11        -2.4157    0.5131    3.6912 H         1 <0>         0.1351
     45 H12         0.9915    3.0771    3.7997 H         1 <0>         0.1332
     46 H13         0.0795    4.2146    5.7824 H         1 <0>         0.1417
     47 H14        -0.4316    0.0011    2.3934 H         1 <0>         0.1456
     48 H15         0.9880    1.0740    2.4360 H         1 <0>         0.1429
     49 H16         0.0004    0.1494   -0.0764 H         1 <0>         0.1748
     50 H17         1.1871    1.4667    0.0835 H         1 <0>         0.1554
     51 H18         0.0878    1.5622   -2.1267 H         1 <0>         0.1743
     52 H19        -1.5075    1.6427   -1.3409 H         1 <0>         0.1550
     53 H20        -0.8970    4.9311    0.1528 H         1 <0>         0.1730
     54 H21        -2.0837    3.6139   -0.0075 H         1 <0>         0.1544
     55 H22         0.6109    3.4376    1.4170 H         1 <0>         0.1544
     56 H23        -0.9842    3.5187    2.2031 H         1 <0>         0.1764
     57 H24        -1.8455    3.8005   -2.4906 H         1 <0>         0.1321
     58 H25        -0.6827    5.1184   -2.2089 H         1 <0>         0.1352
     59 H26        -0.2100    3.7082   -3.1869 H         1 <0>         0.1355
     60 N5         -0.6060    1.7142    1.1906 N.4       1 <0>        -0.4048
     61 H27        -1.6035    1.4979    1.0792 H         1 <0>         0.4356
     62 N6         -0.2903    3.3663   -1.1141 N.4       1 <0>        -0.4063
     63 H28         0.7073    3.5823   -1.0023 H         1 <0>         0.4399
@<TRIPOS>BOND
     1    1    2 1
     2    1   34 1
     3    1   35 1
     4    1   36 1
     5    2    7 am
     6    2    3 1
     7    3   20 ar
     8    3    4 ar
     9    4    5 1
    10    4   17 ar
    11    5    6 2
    12    5   37 1
    13    6    7 1
    14    6    9 1
    15    7    8 2
    16    9   14 ar
    17    9   10 ar
    18   10   11 ar
    19   10   16 1
    20   11   12 ar
    21   11   38 1
    22   12   13 ar
    23   12   39 1
    24   13   14 ar
    25   13   40 1
    26   14   15 1
    27   17   18 ar
    28   17   41 1
    29   18   19 ar
    30   19   20 ar
    31   19   21 1
    32   21   22 1
    33   21   42 1
    34   22   27 ar
    35   22   23 ar
    36   23   24 ar
    37   23   43 1
    38   24   25 ar
    39   24   44 1
    40   25   26 ar
    41   25   28 1
    42   26   27 ar
    43   26   45 1
    44   27   46 1
    45   28   47 1
    46   28   48 1
    47   28   60 1
    48   29   30 1
    49   29   49 1
    50   29   50 1
    51   29   60 1
    52   30   51 1
    53   30   52 1
    54   30   62 1
    55   31   32 1
    56   31   53 1
    57   31   54 1
    58   31   62 1
    59   32   55 1
    60   32   56 1
    61   32   60 1
    62   33   57 1
    63   33   58 1
    64   33   59 1
    65   33   62 1
    66   60   61 1
    67   62   63 1
@<TRIPOS>MOLECULE
ZINC03815499
   51    54     0     0     0
SMALL
USER_CHARGES

@<TRIPOS>ATOM
      1 C1          2.0709    8.2772    0.4276 C.3       1 <0>         0.0687
      2 N1          3.3654    7.5914    0.4148 N.am      1 <0>        -0.5055
      3 C2          3.4085    6.2243    0.3059 C.ar      1 <0>         0.4668
      4 C3          4.6476    5.5480    0.2920 C.ar      1 <0>        -0.2679
      5 C4          5.8559    6.2749    0.3904 C.2       1 <0>         0.0218
      6 C5          5.8030    7.6389    0.4978 C.2       1 <0>        -0.1511
      7 C6          4.5011    8.3093    0.5096 C.2       1 <0>         0.5543
      8 O1          4.4450    9.5224    0.6053 O.2       1 <0>        -0.4936
      9 C7          7.0517    8.4294    0.6022 C.ar      1 <0>        -0.0164
     10 C8          7.6001    8.7111    1.8540 C.ar      1 <0>        -0.0057
     11 C9          8.7666    9.4453    1.9441 C.ar      1 <0>        -0.1053
     12 C10         9.3860    9.9087    0.7974 C.ar      1 <0>        -0.0845
     13 C11         8.8450    9.6370   -0.4464 C.ar      1 <0>        -0.1052
     14 C12         7.6814    8.9002   -0.5507 C.ar      1 <0>        -0.0060
     15 Cl1         7.0034    8.5613   -2.1124 Cl        1 <0>        -0.0505
     16 Cl2         6.8210    8.1355    3.2946 Cl        1 <0>        -0.0510
     17 C13         4.6477    4.1496    0.1787 C.ar      1 <0>         0.2628
     18 N2          3.4895    3.5229    0.0897 N.ar      1 <0>        -0.5744
     19 C14         2.3421    4.1926    0.1060 C.ar      1 <0>         0.6040
     20 N3          2.2918    5.5122    0.2062 N.ar      1 <0>        -0.5918
     21 N4          1.1585    3.4870    0.0093 N.pl3     1 <0>        -0.6301
     22 C15         1.1757    2.0869    0.0133 C.ar      1 <0>         0.1475
     23 C16         2.1234    1.4060    0.7660 C.ar      1 <0>        -0.0704
     24 C17         2.1394    0.0252    0.7698 C.ar      1 <0>        -0.1181
     25 C18         1.2089   -0.6817    0.0223 C.ar      1 <0>         0.0940
     26 C19         0.2619   -0.0022   -0.7299 C.ar      1 <0>        -0.1787
     27 C20         0.2448    1.3786   -0.7351 C.ar      1 <0>        -0.1061
     28 O2          1.2247   -2.0414    0.0273 O.3       1 <0>        -0.3303
     29 C21         0.2377   -2.7046   -0.7652 C.3       1 <0>         0.0208
     30 C22         0.4120   -4.2190   -0.6345 C.3       1 <0>         0.0068
     31 H1          1.7162    8.3647    1.4546 H         1 <0>         0.0760
     32 H2          2.1823    9.2718   -0.0042 H         1 <0>         0.0942
     33 H3          1.3510    7.7055   -0.1580 H         1 <0>         0.0949
     34 H4          6.8065    5.7624    0.3799 H         1 <0>         0.1523
     35 H5          9.1939    9.6612    2.9121 H         1 <0>         0.1451
     36 H6         10.2958   10.4856    0.8735 H         1 <0>         0.1471
     37 H7          9.3333   10.0020   -1.3378 H         1 <0>         0.1451
     38 H8          5.5758    3.5975    0.1643 H         1 <0>         0.1894
     39 H9          0.3154    3.9615   -0.0615 H         1 <0>         0.4286
     40 H10         2.8449    1.9561    1.3519 H         1 <0>         0.1479
     41 H11         2.8763   -0.5046    1.3552 H         1 <0>         0.1369
     42 H12        -0.4620   -0.5533   -1.3119 H         1 <0>         0.1313
     43 H13        -0.4923    1.9074   -1.3211 H         1 <0>         0.1346
     44 H14        -0.7564   -2.4221   -0.4187 H         1 <0>         0.0872
     45 H15         0.3547   -2.4142   -1.8092 H         1 <0>         0.1089
     46 H16        -0.2820   -4.7240   -1.3065 H         1 <0>         0.1538
     47 H17         1.4344   -4.4911   -0.8966 H         1 <0>         0.1432
     48 H18        -0.7831   -4.3276    1.0384 H         1 <0>         0.4369
     49 H19         0.2451   -5.6228    0.8621 H         1 <0>         0.4420
     50 N5          0.1548   -4.6131    0.7619 N.4       1 <0>        -0.6472
     51 H20         0.8391   -4.1532    1.3739 H         1 <0>         0.4465
@<TRIPOS>BOND
     1    1    2 1
     2    1   31 1
     3    1   32 1
     4    1   33 1
     5    2    7 am
     6    2    3 1
     7    3   20 ar
     8    3    4 ar
     9    4    5 1
    10    4   17 ar
    11    5    6 2
    12    5   34 1
    13    6    7 1
    14    6    9 1
    15    7    8 2
    16    9   14 ar
    17    9   10 ar
    18   10   11 ar
    19   10   16 1
    20   11   12 ar
    21   11   35 1
    22   12   13 ar
    23   12   36 1
    24   13   14 ar
    25   13   37 1
    26   14   15 1
    27   17   18 ar
    28   17   38 1
    29   18   19 ar
    30   19   20 ar
    31   19   21 1
    32   21   22 1
    33   21   39 1
    34   22   27 ar
    35   22   23 ar
    36   23   24 ar
    37   23   40 1
    38   24   25 ar
    39   24   41 1
    40   25   26 ar
    41   25   28 1
    42   26   27 ar
    43   26   42 1
    44   27   43 1
    45   28   29 1
    46   29   30 1
    47   29   44 1
    48   29   45 1
    49   30   46 1
    50   30   47 1
    51   30   50 1
    52   48   50 1
    53   49   50 1
    54   50   51 1
@<TRIPOS>MOLECULE
ZINC03815501
   57    60     0     0     0
SMALL
USER_CHARGES

@<TRIPOS>ATOM
      1 C1          0.0001   -6.4621    2.3646 C.3       1 <0>        -0.1911
      2 C2          0.2945   -6.0773    0.9133 C.3       1 <0>        -0.0060
      3 C3          0.4120   -4.2190   -0.6345 C.3       1 <0>         0.0046
      4 C4          0.2377   -2.7046   -0.7652 C.3       1 <0>         0.0244
      5 O1          1.2247   -2.0414    0.0273 O.3       1 <0>        -0.3293
      6 C5          1.2089   -0.6817    0.0223 C.ar      1 <0>         0.0952
      7 C6          2.1394    0.0252    0.7698 C.ar      1 <0>        -0.1186
      8 C7          2.1234    1.4060    0.7661 C.ar      1 <0>        -0.0702
      9 C8          1.1757    2.0869    0.0133 C.ar      1 <0>         0.1464
     10 C9          0.2449    1.3786   -0.7351 C.ar      1 <0>        -0.1058
     11 C10         0.2619   -0.0022   -0.7299 C.ar      1 <0>        -0.1791
     12 N1          1.1585    3.4870    0.0093 N.pl3     1 <0>        -0.6299
     13 C11         2.3421    4.1926    0.1060 C.ar      1 <0>         0.6043
     14 N2          3.4897    3.5228    0.0897 N.ar      1 <0>        -0.5742
     15 C12         4.6477    4.1493    0.1791 C.ar      1 <0>         0.2630
     16 C13         4.6476    5.5480    0.2929 C.ar      1 <0>        -0.2683
     17 C14         5.8558    6.2749    0.3918 C.2       1 <0>         0.0221
     18 C15         5.8029    7.6388    0.5005 C.2       1 <0>        -0.1516
     19 C16         4.5009    8.3092    0.5118 C.2       1 <0>         0.5544
     20 O2          4.4447    9.5222    0.6078 O.2       1 <0>        -0.4938
     21 N3          3.3654    7.5912    0.4161 N.am      1 <0>        -0.5055
     22 C17         3.4087    6.2242    0.3068 C.ar      1 <0>         0.4667
     23 N4          2.2918    5.5119    0.2063 N.ar      1 <0>        -0.5920
     24 C18         2.0708    8.2769    0.4284 C.3       1 <0>         0.0688
     25 C19         7.0516    8.4292    0.6063 C.ar      1 <0>        -0.0161
     26 C20         7.5990    8.7101    1.8588 C.ar      1 <0>        -0.0058
     27 C21         8.7657    9.4437    1.9502 C.ar      1 <0>        -0.1054
     28 C22         9.3860    9.9080    0.8043 C.ar      1 <0>        -0.0846
     29 C23         8.8456    9.6374   -0.4400 C.ar      1 <0>        -0.1053
     30 C24         7.6821    8.9008   -0.5457 C.ar      1 <0>        -0.0060
     31 Cl1         7.0052    8.5629   -2.1082 Cl        1 <0>        -0.0505
     32 Cl2         6.8185    8.1341    3.2984 Cl        1 <0>        -0.0509
     33 H1          0.1173   -7.5390    2.4858 H         1 <0>         0.1073
     34 H2          0.6949   -5.9443    3.0258 H         1 <0>         0.0813
     35 H3         -1.0215   -6.1772    2.6159 H         1 <0>         0.0805
     36 H4         -0.4002   -6.5951    0.2520 H         1 <0>         0.1306
     37 H5          1.3161   -6.3622    0.6619 H         1 <0>         0.1311
     38 H6         -0.2819   -4.7240   -1.3065 H         1 <0>         0.1498
     39 H7          1.4345   -4.4911   -0.8966 H         1 <0>         0.1422
     40 H8         -0.7564   -2.4221   -0.4187 H         1 <0>         0.0864
     41 H9          0.3548   -2.4142   -1.8092 H         1 <0>         0.1092
     42 H10         2.8763   -0.5046    1.3552 H         1 <0>         0.1367
     43 H11         2.8448    1.9561    1.3519 H         1 <0>         0.1477
     44 H12        -0.4922    1.9074   -1.3211 H         1 <0>         0.1343
     45 H13        -0.4619   -0.5533   -1.3119 H         1 <0>         0.1313
     46 H14         0.3154    3.9615   -0.0615 H         1 <0>         0.4285
     47 H15         5.5758    3.5973    0.1647 H         1 <0>         0.1893
     48 H16         6.8063    5.7623    0.3820 H         1 <0>         0.1522
     49 H17         1.7155    8.3640    1.4552 H         1 <0>         0.0760
     50 H18         2.1824    9.2716   -0.0031 H         1 <0>         0.0941
     51 H19         1.3513    7.7052   -0.1578 H         1 <0>         0.0949
     52 H20         9.1927    9.6584    2.9187 H         1 <0>         0.1450
     53 H21        10.2960   10.4844    0.8814 H         1 <0>         0.1471
     54 H22         9.3344   10.0034   -1.3309 H         1 <0>         0.1451
     55 N5          0.1338   -4.6193    0.7578 N.4       1 <0>        -0.5214
     56 H23         0.7879   -4.1376    1.3858 H         1 <0>         0.4393
     57 H24        -0.8290   -4.3569    0.9997 H         1 <0>         0.4313
@<TRIPOS>BOND
     1    1    2 1
     2    1   33 1
     3    1   34 1
     4    1   35 1
     5    2   36 1
     6    2   37 1
     7    2   55 1
     8    3    4 1
     9    3   38 1
    10    3   39 1
    11    3   55 1
    12    4    5 1
    13    4   40 1
    14    4   41 1
    15    5    6 1
    16    6   11 ar
    17    6    7 ar
    18    7    8 ar
    19    7   42 1
    20    8    9 ar
    21    8   43 1
    22    9   10 ar
    23    9   12 1
    24   10   11 ar
    25   10   44 1
    26   11   45 1
    27   12   13 1
    28   12   46 1
    29   13   23 ar
    30   13   14 ar
    31   14   15 ar
    32   15   16 ar
    33   15   47 1
    34   16   22 ar
    35   16   17 1
    36   17   18 2
    37   17   48 1
    38   18   19 1
    39   18   25 1
    40   19   20 2
    41   19   21 am
    42   21   22 1
    43   21   24 1
    44   22   23 ar
    45   24   49 1
    46   24   50 1
    47   24   51 1
    48   25   30 ar
    49   25   26 ar
    50   26   27 ar
    51   26   32 1
    52   27   28 ar
    53   27   52 1
    54   28   29 ar
    55   28   53 1
    56   29   30 ar
    57   29   54 1
    58   30   31 1
    59   55   56 1
    60   55   57 1
@<TRIPOS>MOLECULE
ZINC03815504
   37    39     0     0     0
SMALL
USER_CHARGES

@<TRIPOS>ATOM
      1 C1          4.7161    2.6672   -0.5613 C.3       1 <0>        -0.0792
      2 C2          3.2116    2.6200   -0.4896 C.2       1 <0>        -0.1831
      3 C3          2.3698    3.6620   -0.7028 C.2       1 <0>         0.0389
      4 N1          1.0910    3.2334   -0.5547 N.pl3     1 <0>        -0.5148
      5 H1          0.2957    3.7793   -0.6566 H         1 <0>         0.4174
      6 C4          1.1110    1.8936   -0.2316 C.2       1 <0>        -0.0334
      7 C5          2.4387    1.4963   -0.1913 C.2       1 <0>        -0.0596
      8 C6          2.9509    0.1127    0.1160 C.3       1 <0>        -0.0417
      9 C7          3.0672   -0.6881   -1.1825 C.3       1 <0>        -0.1463
     10 C8          3.5794   -2.0717   -0.8752 C.2       1 <0>         0.4588
     11 O1          3.8260   -2.3852    0.2653 O.co2     1 <0>        -0.6408
     12 C9         -0.0126    1.0758    0.0080 C.2       1 <0>         0.1164
     13 C10        -1.1420    1.6094    0.5988 C.2       1 <0>        -0.2363
     14 C11        -2.4575    0.9561    0.7788 C.ar      1 <0>        -0.0748
     15 C12        -2.9479   -0.3054    0.4566 C.ar      1 <0>        -0.0419
     16 C13        -4.2527   -0.6326    0.7685 C.ar      1 <0>        -0.1094
     17 C14        -5.0670    0.2904    1.4055 C.ar      1 <0>        -0.0645
     18 C15        -4.5873    1.5416    1.7351 C.ar      1 <0>        -0.1313
     19 C16        -3.2761    1.8894    1.4291 C.ar      1 <0>         0.1489
     20 N2         -2.5543    3.0573    1.6443 N.am      1 <0>        -0.6514
     21 C17        -1.2985    2.9496    1.1781 C.2       1 <0>         0.5598
     22 O2         -0.4403    3.8130    1.2269 O.2       1 <0>        -0.5135
     23 Br1        -4.9294   -2.3419    0.3254 Br        1 <0>        -0.0456
     24 H2          5.0387    2.4409   -1.5776 H         1 <0>         0.0617
     25 H3          5.0621    3.6628   -0.2835 H         1 <0>         0.0553
     26 H4          5.1358    1.9319    0.1252 H         1 <0>         0.0659
     27 H5          2.6690    4.6689   -0.9538 H         1 <0>         0.1651
     28 H6          3.9309    0.1844    0.5876 H         1 <0>         0.0759
     29 H7          2.2584   -0.3894    0.7916 H         1 <0>         0.0681
     30 H8          2.0872   -0.7599   -1.6542 H         1 <0>         0.0610
     31 H9          3.7597   -0.1861   -1.8582 H         1 <0>         0.0653
     32 H10         0.0080    0.0336   -0.2744 H         1 <0>         0.1557
     33 H11        -2.3124   -1.0239   -0.0397 H         1 <0>         0.1415
     34 H12        -6.0865    0.0278    1.6464 H         1 <0>         0.1387
     35 H13        -5.2316    2.2522    2.2313 H         1 <0>         0.1339
     36 H14        -2.9115    3.8494    2.0755 H         1 <0>         0.4157
     37 O3          3.7615   -2.9559   -1.8686 O.co2     1 <0>        -0.7765
@<TRIPOS>BOND
     1    1    2 1
     2    1   24 1
     3    1   25 1
     4    1   26 1
     5    2    7 1
     6    2    3 2
     7    3    4 1
     8    3   27 1
     9    4    5 1
    10    4    6 1
    11    6    7 2
    12    6   12 1
    13    7    8 1
    14    8    9 1
    15    8   28 1
    16    8   29 1
    17    9   10 1
    18    9   30 1
    19    9   31 1
    20   10   11 2
    21   10   37 1
    22   12   13 2
    23   12   32 1
    24   13   21 1
    25   13   14 1
    26   14   19 ar
    27   14   15 ar
    28   15   16 ar
    29   15   33 1
    30   16   17 ar
    31   16   23 1
    32   17   18 ar
    33   17   34 1
    34   18   19 ar
    35   18   35 1
    36   19   20 1
    37   20   21 am
    38   20   36 1
    39   21   22 2
@<TRIPOS>MOLECULE
ZINC03815505
   63    65     0     0     0
SMALL
USER_CHARGES

@<TRIPOS>ATOM
      1 C1        -11.3762   -4.6258   -0.8142 C.3       1 <0>        -0.1917
      2 C2         -9.8919   -4.3554   -1.0687 C.3       1 <0>        -0.0085
      3 C3         -9.1704   -5.9302    0.6231 C.3       1 <0>        -0.0137
      4 C4         -8.8283   -6.0031    2.1125 C.3       1 <0>        -0.1885
      5 C5         -7.7593   -4.0519    0.0370 C.3       1 <0>        -0.0091
      6 C6         -7.7427   -2.5223    0.0651 C.3       1 <0>        -0.1495
      7 C7         -6.2951   -2.0275    0.0432 C.3       1 <0>        -0.1153
      8 C8         -6.2785   -0.4978    0.0713 C.3       1 <0>        -0.1364
      9 C9         -4.8309   -0.0031    0.0494 C.3       1 <0>         0.1069
     10 N1         -4.8150    1.4616    0.0763 N.pl3     1 <0>        -0.7058
     11 C10        -3.6064    2.1425    0.0630 C.ar      1 <0>         0.4707
     12 C11        -2.4202    1.4227    0.0246 C.ar      1 <0>        -0.2570
     13 C12        -1.2155    2.1148    0.0068 C.ar      1 <0>         0.3267
     14 C13        -1.2529    3.5264    0.0386 C.ar      1 <0>        -0.1546
     15 C14        -0.0460    4.2651    0.0264 C.2       1 <0>        -0.0202
     16 C15         1.1454    3.5933   -0.0116 C.2       1 <0>        -0.0888
     17 C16         1.1489    2.1289   -0.0389 C.2       1 <0>         0.5414
     18 O1          2.2064    1.5252   -0.0728 O.2       1 <0>        -0.4495
     19 N2         -0.0131    1.4467   -0.0261 N.am      1 <0>        -0.5107
     20 C17         0.0038   -0.0179   -0.0537 C.3       1 <0>         0.0437
     21 C18         2.4235    4.3423   -0.0257 C.ar      1 <0>        -0.0463
     22 C19         3.0046    4.7140   -1.2387 C.ar      1 <0>        -0.0021
     23 C20         4.1936    5.4168   -1.2447 C.ar      1 <0>        -0.1011
     24 C21         4.8137    5.7430   -0.0520 C.ar      1 <0>        -0.0716
     25 C22         4.2458    5.3726    1.1538 C.ar      1 <0>        -0.1011
     26 C23         3.0545    4.6742    1.1739 C.ar      1 <0>        -0.0022
     27 Cl1         2.3438    4.2098    2.6881 Cl        1 <0>        -0.0489
     28 Cl2         2.2317    4.2992   -2.7368 Cl        1 <0>        -0.0489
     29 C24        -2.4943    4.1724    0.0773 C.ar      1 <0>         0.2318
     30 H1        -11.5029   -5.6465   -0.4533 H         1 <0>         0.0822
     31 H2        -11.7497   -3.9268   -0.0659 H         1 <0>         0.0801
     32 H3        -11.9333   -4.4967   -1.7421 H         1 <0>         0.1080
     33 H4         -9.7652   -3.3348   -1.4296 H         1 <0>         0.1263
     34 H5         -9.5184   -5.0544   -1.8170 H         1 <0>         0.1315
     35 H6        -10.1661   -6.3422    0.4584 H         1 <0>         0.1332
     36 H7         -8.4404   -6.5058    0.0540 H         1 <0>         0.1320
     37 H8         -7.7996   -5.6768    2.2654 H         1 <0>         0.0780
     38 H9         -9.5022   -5.3546    2.6723 H         1 <0>         0.0795
     39 H10        -8.9393   -7.0299    2.4610 H         1 <0>         0.1086
     40 H11        -7.3513   -4.4024   -0.9110 H         1 <0>         0.1325
     41 H12        -7.1540   -4.4370    0.8576 H         1 <0>         0.1305
     42 H13        -8.2334   -2.1702    0.9725 H         1 <0>         0.0880
     43 H14        -8.2716   -2.1371   -0.8067 H         1 <0>         0.0893
     44 H15        -5.8045   -2.3796   -0.8642 H         1 <0>         0.0827
     45 H16        -5.7663   -2.4127    0.9151 H         1 <0>         0.0822
     46 H17        -6.7691   -0.1458    0.9787 H         1 <0>         0.0820
     47 H18        -6.8073   -0.1127   -0.8005 H         1 <0>         0.0820
     48 H19        -4.3402   -0.3551   -0.8580 H         1 <0>         0.0897
     49 H20        -4.3020   -0.3882    0.9212 H         1 <0>         0.0896
     50 H21        -5.6495    1.9553    0.1034 H         1 <0>         0.4201
     51 H22        -2.4335    0.3429    0.0048 H         1 <0>         0.1840
     52 H23        -0.0650    5.3448    0.0465 H         1 <0>         0.1693
     53 H24         1.0354   -0.3689   -0.0828 H         1 <0>         0.1193
     54 H25        -0.4862   -0.4038    0.8402 H         1 <0>         0.0916
     55 H26        -0.5251   -0.3708   -0.9390 H         1 <0>         0.0914
     56 H27         4.6423    5.7086   -2.1827 H         1 <0>         0.1508
     57 H28         5.7454    6.2891   -0.0622 H         1 <0>         0.1534
     58 H29         4.7350    5.6304    2.0815 H         1 <0>         0.1508
     59 H30        -2.5387    5.2513    0.0983 H         1 <0>         0.2121
     60 N3         -9.1538   -4.5135    0.2021 N.4       1 <0>        -0.3979
     61 H31        -9.6097   -3.9452    0.9255 H         1 <0>         0.4248
     62 N4         -3.6794    3.5110    0.0900 N.ar      1 <0>        -0.5502
     63 H32        -4.5781    4.0067    0.1181 H         1 <0>         0.4731
@<TRIPOS>BOND
     1    1    2 1
     2    1   30 1
     3    1   31 1
     4    1   32 1
     5    2   33 1
     6    2   34 1
     7    2   60 1
     8    3    4 1
     9    3   35 1
    10    3   36 1
    11    3   60 1
    12    4   37 1
    13    4   38 1
    14    4   39 1
    15    5    6 1
    16    5   40 1
    17    5   41 1
    18    5   60 1
    19    6    7 1
    20    6   42 1
    21    6   43 1
    22    7    8 1
    23    7   44 1
    24    7   45 1
    25    8    9 1
    26    8   46 1
    27    8   47 1
    28    9   10 1
    29    9   48 1
    30    9   49 1
    31   10   11 1
    32   10   50 1
    33   11   12 ar
    34   11   62 ar
    35   12   13 ar
    36   12   51 1
    37   13   19 1
    38   13   14 ar
    39   14   15 1
    40   14   29 ar
    41   15   16 2
    42   15   52 1
    43   16   17 1
    44   16   21 1
    45   17   18 2
    46   17   19 am
    47   19   20 1
    48   20   53 1
    49   20   54 1
    50   20   55 1
    51   21   26 ar
    52   21   22 ar
    53   22   23 ar
    54   22   28 1
    55   23   24 ar
    56   23   56 1
    57   24   25 ar
    58   24   57 1
    59   25   26 ar
    60   25   58 1
    61   26   27 1
    62   29   59 1
    63   29   62 ar
    64   60   61 1
    65   62   63 1
@<TRIPOS>MOLECULE
ZINC03815508
   69    71     0     0     0
SMALL
USER_CHARGES

@<TRIPOS>ATOM
      1 C1         -6.4337    5.8814    0.9585 C.3       1 <0>        -0.1901
      2 C2         -4.9390    5.6534    1.1926 C.3       1 <0>        -0.0100
      3 C3         -4.2857    7.2477   -0.5086 C.3       1 <0>        -0.0121
      4 C4         -3.9661    7.3299   -2.0026 C.3       1 <0>        -0.1894
      5 C5         -2.8140    5.4103    0.0578 C.3       1 <0>        -0.0022
      6 C6         -2.7543    3.8817    0.0292 C.3       1 <0>        -0.1658
      7 C7         -1.2931    3.4283    0.0313 C.3       1 <0>         0.1446
      8 N1         -1.2360    1.9646    0.0039 N.pl3     1 <0>        -0.7011
      9 C8         -0.0131    1.3208    0.0006 C.ar      1 <0>         0.5901
     10 N2          1.0959    2.0571    0.0171 N.ar      1 <0>        -0.5747
     11 C9          2.2900    1.4999    0.0094 C.ar      1 <0>         0.2674
     12 C10         2.3750    0.0973   -0.0169 C.ar      1 <0>        -0.2888
     13 C11         3.6103   -0.5712   -0.0271 C.ar      1 <0>         0.0467
     14 C12         3.5989   -1.9566   -0.0538 C.ar      1 <0>        -0.1579
     15 C13         2.3644   -2.6402   -0.0696 C.ar      1 <0>         0.4886
     16 N3          1.2184   -1.9905   -0.0595 N.ar      1 <0>        -0.4745
     17 C14         1.1727   -0.6572   -0.0340 C.ar      1 <0>         0.4306
     18 N4          0.0072    0.0017   -0.0243 N.ar      1 <0>        -0.5572
     19 N5          2.3574   -4.0273   -0.0958 N.am      1 <0>        -0.6588
     20 C15         1.1868   -4.6952   -0.1111 C.2       1 <0>         0.6933
     21 O1          0.1371   -4.0821   -0.1019 O.2       1 <0>        -0.5052
     22 N6          1.1801   -6.0427   -0.1365 N.am      1 <0>        -0.7335
     23 C16        -0.0923   -6.7686   -0.1532 C.3       1 <0>         0.1878
     24 C17        -0.8898   -6.3714   -1.3970 C.3       1 <0>        -0.1657
     25 C18         0.1797   -8.2740   -0.1810 C.3       1 <0>        -0.1566
     26 C19        -0.8956   -6.4186    1.1010 C.3       1 <0>        -0.1657
     27 C20         4.8732   -2.7145   -0.0661 C.ar      1 <0>        -0.0455
     28 C21         5.4742   -3.0543   -1.2781 C.ar      1 <0>        -0.0130
     29 C22         6.6641   -3.7558   -1.2828 C.ar      1 <0>        -0.1033
     30 C23         7.2541   -4.1305   -0.0892 C.ar      1 <0>        -0.0808
     31 C24         6.6601   -3.8016    1.1159 C.ar      1 <0>        -0.1033
     32 C25         5.4730   -3.0957    1.1341 C.ar      1 <0>        -0.0129
     33 Cl1         4.7287   -2.6843    2.6476 Cl        1 <0>        -0.0433
     34 Cl2         4.7316   -2.5912   -2.7774 Cl        1 <0>        -0.0434
     35 H1         -6.7974    5.1720    0.2152 H         1 <0>         0.0802
     36 H2         -6.9742    5.7368    1.8939 H         1 <0>         0.1064
     37 H3         -6.5943    6.8980    0.5995 H         1 <0>         0.0803
     38 H4         -4.7784    4.6368    1.5516 H         1 <0>         0.1286
     39 H5         -4.5753    6.3629    1.9359 H         1 <0>         0.1315
     40 H6         -5.2903    7.6312   -0.3303 H         1 <0>         0.1313
     41 H7         -3.5646    7.8439    0.0506 H         1 <0>         0.1319
     42 H8         -4.6290    6.6623   -2.5532 H         1 <0>         0.0794
     43 H9         -4.1110    8.3531   -2.3493 H         1 <0>         0.1064
     44 H10        -2.9308    7.0328   -2.1695 H         1 <0>         0.0803
     45 H11        -2.4032    5.7724    1.0002 H         1 <0>         0.1364
     46 H12        -2.2311    5.8122   -0.7709 H         1 <0>         0.1343
     47 H13        -3.2471    3.5157   -0.8714 H         1 <0>         0.0940
     48 H14        -3.2601    3.4819    0.9082 H         1 <0>         0.0950
     49 H15        -0.8003    3.7943    0.9319 H         1 <0>         0.0783
     50 H16        -0.7874    3.8281   -0.8477 H         1 <0>         0.0780
     51 H17        -2.0565    1.4475   -0.0118 H         1 <0>         0.4176
     52 H18         3.1829    2.1072    0.0233 H         1 <0>         0.1819
     53 H19         4.5404   -0.0224   -0.0142 H         1 <0>         0.1535
     54 H20         3.1950   -4.5165   -0.1031 H         1 <0>         0.4134
     55 H21         2.0177   -6.5318   -0.1438 H         1 <0>         0.3952
     56 H22        -0.3175   -6.6208   -2.2905 H         1 <0>         0.0534
     57 H23        -1.8365   -6.9115   -1.4094 H         1 <0>         0.0648
     58 H24        -1.0836   -5.2990   -1.3772 H         1 <0>         0.0799
     59 H25         0.7479   -8.5570    0.7051 H         1 <0>         0.0632
     60 H26        -0.7670   -8.8141   -0.1934 H         1 <0>         0.0777
     61 H27         0.7520   -8.5234   -1.0745 H         1 <0>         0.0632
     62 H28        -1.0894   -5.3461    1.1208 H         1 <0>         0.0800
     63 H29        -1.8423   -6.9587    1.0886 H         1 <0>         0.0648
     64 H30        -0.3275   -6.7016    1.9871 H         1 <0>         0.0534
     65 H31         7.1328   -4.0156   -2.2204 H         1 <0>         0.1469
     66 H32         8.1823   -4.6825   -0.0982 H         1 <0>         0.1488
     67 H33         7.1257   -4.0970    2.0445 H         1 <0>         0.1469
     68 N7         -4.2231    5.8320   -0.0881 N.4       1 <0>        -0.3971
     69 H34        -4.6726    5.2509   -0.8053 H         1 <0>         0.4257
@<TRIPOS>BOND
     1    1    2 1
     2    1   35 1
     3    1   36 1
     4    1   37 1
     5    2   38 1
     6    2   39 1
     7    2   68 1
     8    3    4 1
     9    3   40 1
    10    3   41 1
    11    3   68 1
    12    4   42 1
    13    4   43 1
    14    4   44 1
    15    5    6 1
    16    5   45 1
    17    5   46 1
    18    5   68 1
    19    6    7 1
    20    6   47 1
    21    6   48 1
    22    7    8 1
    23    7   49 1
    24    7   50 1
    25    8    9 1
    26    8   51 1
    27    9   18 ar
    28    9   10 ar
    29   10   11 ar
    30   11   12 ar
    31   11   52 1
    32   12   17 ar
    33   12   13 ar
    34   13   14 ar
    35   13   53 1
    36   14   15 ar
    37   14   27 1
    38   15   16 ar
    39   15   19 1
    40   16   17 ar
    41   17   18 ar
    42   19   20 am
    43   19   54 1
    44   20   21 2
    45   20   22 am
    46   22   23 1
    47   22   55 1
    48   23   24 1
    49   23   25 1
    50   23   26 1
    51   24   56 1
    52   24   57 1
    53   24   58 1
    54   25   59 1
    55   25   60 1
    56   25   61 1
    57   26   62 1
    58   26   63 1
    59   26   64 1
    60   27   32 ar
    61   27   28 ar
    62   28   29 ar
    63   28   34 1
    64   29   30 ar
    65   29   65 1
    66   30   31 ar
    67   30   66 1
    68   31   32 ar
    69   31   67 1
    70   32   33 1
    71   68   69 1
@<TRIPOS>MOLECULE
ZINC03815509
   63    66     0     0     0
SMALL
USER_CHARGES

@<TRIPOS>ATOM
      1 C1         -0.2742    8.9607   -1.2397 C.3       1 <0>        -0.1632
      2 C2          0.4657    8.7038    0.0746 C.3       1 <0>         0.0962
      3 N1          1.8111    8.2001   -0.2128 N.am      1 <0>        -0.5037
      4 C3          2.0195    6.8491   -0.3307 C.ar      1 <0>         0.4630
      5 C4          3.3100    6.3473   -0.6065 C.ar      1 <0>        -0.2622
      6 C5          4.3993    7.2340   -0.7641 C.2       1 <0>        -0.0004
      7 C6          4.1816    8.5806   -0.6451 C.2       1 <0>        -0.1363
      8 C7          2.8308    9.0679   -0.3585 C.2       1 <0>         0.5461
      9 O1          2.6283   10.2643   -0.2511 O.2       1 <0>        -0.4933
     10 C8          5.3027    9.5361   -0.8052 C.ar      1 <0>        -0.0396
     11 C9          5.7149   10.3187    0.2728 C.ar      1 <0>        -0.0878
     12 C10         6.7630   11.2030    0.1190 C.ar      1 <0>        -0.1182
     13 C11         7.3969   11.3223   -1.1049 C.ar      1 <0>        -0.1100
     14 C12         6.9891   10.5524   -2.1794 C.ar      1 <0>        -0.1196
     15 C13         5.9460    9.6605   -2.0363 C.ar      1 <0>        -0.1012
     16 C14         3.4806    4.9592   -0.7193 C.ar      1 <0>         0.2587
     17 N2          2.4279    4.1787   -0.5631 N.ar      1 <0>        -0.5765
     18 C15         1.2277    4.6864   -0.3043 C.ar      1 <0>         0.5987
     19 N3          1.0166    5.9891   -0.1941 N.ar      1 <0>        -0.5877
     20 N4          0.1598    3.8240   -0.1499 N.pl3     1 <0>        -0.6317
     21 C16         0.3639    2.4399   -0.2056 C.ar      1 <0>         0.1600
     22 C17         1.5479    1.8925    0.2709 C.ar      1 <0>        -0.0673
     23 C18         1.7482    0.5273    0.2160 C.ar      1 <0>        -0.1002
     24 C19         0.7672   -0.2973   -0.3150 C.ar      1 <0>         0.0580
     25 C20        -0.4159    0.2487   -0.7907 C.ar      1 <0>        -0.1972
     26 C21        -0.6177    1.6137   -0.7370 C.ar      1 <0>        -0.1031
     27 O2          0.9653   -1.6415   -0.3687 O.3       1 <0>        -0.2871
     28 C22        -0.1211   -2.4389   -0.8441 C.3       1 <0>         0.1679
     29 C23        -2.4568   -2.8449   -0.3516 C.3       1 <0>        -0.0080
     30 C24        -3.5286   -2.5692    0.7048 C.3       1 <0>        -0.1896
     31 C25        -0.7451   -3.6186    1.1762 C.3       1 <0>        -0.0062
     32 C26         0.3546   -3.0851    2.0965 C.3       1 <0>        -0.1925
     33 H1         -1.2752    9.3354   -1.0258 H         1 <0>         0.0786
     34 H2          0.2726    9.6990   -1.8261 H         1 <0>         0.0621
     35 H3         -0.3472    8.0306   -1.8033 H         1 <0>         0.0582
     36 H4         -0.0811    7.9654    0.6611 H         1 <0>         0.1001
     37 H5          0.5387    9.6338    0.6383 H         1 <0>         0.0999
     38 H6          5.3885    6.8552   -0.9748 H         1 <0>         0.1532
     39 H7          5.2176   10.2299    1.2274 H         1 <0>         0.1204
     40 H8          7.0863   11.8062    0.9544 H         1 <0>         0.1264
     41 H9          8.2138   12.0190   -1.2217 H         1 <0>         0.1253
     42 H10         7.4878   10.6499   -3.1324 H         1 <0>         0.1266
     43 H11         5.6286    9.0597   -2.8758 H         1 <0>         0.1229
     44 H12         4.4527    4.5384   -0.9299 H         1 <0>         0.1900
     45 H13        -0.7315    4.1773   -0.0029 H         1 <0>         0.4292
     46 H14         2.3099    2.5339    0.6884 H         1 <0>         0.1562
     47 H15         2.6688    0.1014    0.5868 H         1 <0>         0.1445
     48 H16        -1.1794   -0.3940   -1.2036 H         1 <0>         0.1237
     49 H17        -1.5389    2.0386   -1.1074 H         1 <0>         0.1385
     50 H18        -0.5708   -1.9590   -1.7134 H         1 <0>         0.1324
     51 H19         0.2476   -3.4256   -1.1239 H         1 <0>         0.1744
     52 H20        -2.6215   -2.1985   -1.2137 H         1 <0>         0.1282
     53 H21        -2.5137   -3.8878   -0.6634 H         1 <0>         0.1371
     54 H22        -4.5118   -2.7963    0.2928 H         1 <0>         0.1094
     55 H23        -3.3472   -3.1953    1.5784 H         1 <0>         0.0819
     56 H24        -3.4903   -1.5194    0.9959 H         1 <0>         0.0806
     57 H25        -1.6129   -3.9006    1.7725 H         1 <0>         0.1290
     58 H26        -0.3760   -4.4909    0.6367 H         1 <0>         0.1328
     59 H27         1.2055   -2.7625    1.4966 H         1 <0>         0.0922
     60 H28        -0.0284   -2.2398    2.6681 H         1 <0>         0.0759
     61 H29         0.6700   -3.8731    2.7803 H         1 <0>         0.1040
     62 N5         -1.1303   -2.5503    0.2301 N.4       1 <0>        -0.4262
     63 H30        -1.1787   -1.6582    0.7361 H         1 <0>         0.4270
@<TRIPOS>BOND
     1    1    2 1
     2    1   33 1
     3    1   34 1
     4    1   35 1
     5    2    3 1
     6    2   36 1
     7    2   37 1
     8    3    8 am
     9    3    4 1
    10    4   19 ar
    11    4    5 ar
    12    5    6 1
    13    5   16 ar
    14    6    7 2
    15    6   38 1
    16    7    8 1
    17    7   10 1
    18    8    9 2
    19   10   15 ar
    20   10   11 ar
    21   11   12 ar
    22   11   39 1
    23   12   13 ar
    24   12   40 1
    25   13   14 ar
    26   13   41 1
    27   14   15 ar
    28   14   42 1
    29   15   43 1
    30   16   17 ar
    31   16   44 1
    32   17   18 ar
    33   18   19 ar
    34   18   20 1
    35   20   21 1
    36   20   45 1
    37   21   26 ar
    38   21   22 ar
    39   22   23 ar
    40   22   46 1
    41   23   24 ar
    42   23   47 1
    43   24   25 ar
    44   24   27 1
    45   25   26 ar
    46   25   48 1
    47   26   49 1
    48   27   28 1
    49   28   50 1
    50   28   51 1
    51   28   62 1
    52   29   30 1
    53   29   52 1
    54   29   53 1
    55   29   62 1
    56   30   54 1
    57   30   55 1
    58   30   56 1
    59   31   32 1
    60   31   57 1
    61   31   58 1
    62   31   62 1
    63   32   59 1
    64   32   60 1
    65   32   61 1
    66   62   63 1
@<TRIPOS>MOLECULE
ZINC03815514
   71    75     0     0     0
SMALL
USER_CHARGES

@<TRIPOS>ATOM
      1 C1          5.9751    6.4973   -0.1156 C.3       1 <0>         0.0613
      2 N1          6.8914    5.8003   -1.0216 N.am      1 <0>        -0.5203
      3 C2          6.7829    4.4387   -1.1873 C.ar      1 <0>         0.2702
      4 C3          5.8150    3.7083   -0.5081 C.ar      1 <0>        -0.2796
      5 C4          5.7461    2.3368   -0.7095 C.ar      1 <0>         0.4294
      6 N2          6.5837    1.7175   -1.5349 N.ar      1 <0>        -0.5489
      7 C5          7.5164    2.3625   -2.2006 C.ar      1 <0>         0.2263
      8 C6          7.6565    3.7484   -2.0560 C.ar      1 <0>        -0.2210
      9 C7          8.6542    4.4585   -2.7649 C.2       1 <0>         0.0158
     10 C8          8.7556    5.8125   -2.5947 C.2       1 <0>        -0.1509
     11 C9          7.8300    6.4986   -1.6903 C.2       1 <0>         0.5491
     12 O1          7.9121    7.7045   -1.5384 O.2       1 <0>        -0.5019
     13 C10         9.7912    6.5803   -3.3248 C.ar      1 <0>        -0.0161
     14 C11        11.0501    6.7759   -2.7554 C.ar      1 <0>        -0.0065
     15 C12        12.0127    7.4880   -3.4437 C.ar      1 <0>        -0.1055
     16 C13        11.7277    8.0159   -4.6901 C.ar      1 <0>        -0.0851
     17 C14        10.4800    7.8305   -5.2577 C.ar      1 <0>        -0.1056
     18 C15         9.5101    7.1158   -4.5824 C.ar      1 <0>        -0.0066
     19 Cl1         7.9445    6.8847   -5.2961 Cl        1 <0>        -0.0519
     20 Cl2        11.4074    6.1204   -1.1881 Cl        1 <0>        -0.0511
     21 N3          4.7835    1.5979   -0.0364 N.pl3     1 <0>        -0.6594
     22 C16         4.7780    0.2015   -0.1343 C.ar      1 <0>         0.1467
     23 C17         3.5733   -0.4845   -0.2159 C.ar      1 <0>        -0.1112
     24 C18         3.5689   -1.8617   -0.3168 C.ar      1 <0>        -0.1840
     25 C19         4.7671   -2.5606   -0.3270 C.ar      1 <0>         0.0945
     26 C20         5.9708   -1.8766   -0.2402 C.ar      1 <0>        -0.1206
     27 C21         5.9771   -0.4990   -0.1441 C.ar      1 <0>        -0.0678
     28 O2          4.7618   -3.9172   -0.4216 O.3       1 <0>        -0.3146
     29 C22         3.4867   -4.5565   -0.5076 C.3       1 <0>         0.0619
     30 C23         3.6810   -6.0709   -0.6067 C.3       1 <0>        -0.1533
     31 C24         2.3158   -6.7553   -0.6987 C.3       1 <0>        -0.0029
     32 C25         3.1589   -8.5745   -2.0569 C.3       1 <0>        -0.0338
     33 C26         3.4064  -10.0846   -2.0822 C.3       1 <0>        -0.0260
     34 C27         1.4696  -10.4256   -0.6710 C.3       1 <0>        -0.0266
     35 C28         1.2222   -8.9154   -0.6458 C.3       1 <0>        -0.0261
     36 C29         2.3128  -12.2447   -2.0292 C.3       1 <0>        -0.0462
     37 H1          6.4044    6.5233    0.8860 H         1 <0>         0.0782
     38 H2          5.8184    7.5160   -0.4703 H         1 <0>         0.0980
     39 H3          5.0209    5.9711   -0.0884 H         1 <0>         0.0859
     40 H4          5.1284    4.1996    0.1654 H         1 <0>         0.1464
     41 H5          8.1770    1.8212   -2.8617 H         1 <0>         0.1757
     42 H6          9.3268    3.9389   -3.4311 H         1 <0>         0.1475
     43 H7         12.9889    7.6364   -3.0061 H         1 <0>         0.1450
     44 H8         12.4827    8.5755   -5.2223 H         1 <0>         0.1471
     45 H9         10.2638    8.2452   -6.2312 H         1 <0>         0.1448
     46 H10         4.1145    2.0490    0.5019 H         1 <0>         0.4222
     47 H11         2.6402    0.0592   -0.2043 H         1 <0>         0.1305
     48 H12         2.6323   -2.3951   -0.3844 H         1 <0>         0.1248
     49 H13         6.9032   -2.4215   -0.2474 H         1 <0>         0.1348
     50 H14         6.9143    0.0334   -0.0769 H         1 <0>         0.1425
     51 H15         2.9022   -4.3227    0.3823 H         1 <0>         0.0733
     52 H16         2.9600   -4.1991   -1.3924 H         1 <0>         0.0723
     53 H17         4.2655   -6.3047   -1.4965 H         1 <0>         0.0990
     54 H18         4.2077   -6.4282    0.2782 H         1 <0>         0.1031
     55 H19         1.7314   -6.5215    0.1911 H         1 <0>         0.1469
     56 H20         1.7891   -6.3980   -1.5836 H         1 <0>         0.1449
     57 H21         2.5177   -8.2970   -2.8936 H         1 <0>         0.1581
     58 H22         4.1103   -8.0487   -2.1376 H         1 <0>         0.1763
     59 H23         4.0696  -10.3582   -1.2616 H         1 <0>         0.1565
     60 H24         3.8670  -10.3619   -3.0304 H         1 <0>         0.1760
     61 H25         2.1109  -10.7030    0.1656 H         1 <0>         0.1562
     62 H26         0.5183  -10.9514   -0.5900 H         1 <0>         0.1760
     63 H27         0.7615   -8.6382    0.3024 H         1 <0>         0.1758
     64 H28         0.5589   -8.6419   -1.4664 H         1 <0>         0.1571
     65 H29         1.3425  -12.7393   -1.9839 H         1 <0>         0.1362
     66 H30         2.8006  -12.4874   -2.9733 H         1 <0>         0.1364
     67 H31         2.9337  -12.5863   -1.2011 H         1 <0>         0.1330
     68 N4          2.5191   -8.2179   -0.7732 N.4       1 <0>        -0.4051
     69 H32         3.1320   -8.5092   -0.0026 H         1 <0>         0.4393
     70 N5          2.1094  -10.7822   -1.9547 N.4       1 <0>        -0.4067
     71 H33         1.4965  -10.4909   -2.7253 H         1 <0>         0.4405
@<TRIPOS>BOND
     1    1    2 1
     2    1   37 1
     3    1   38 1
     4    1   39 1
     5    2   11 am
     6    2    3 1
     7    3    8 ar
     8    3    4 ar
     9    4    5 ar
    10    4   40 1
    11    5    6 ar
    12    5   21 1
    13    6    7 ar
    14    7    8 ar
    15    7   41 1
    16    8    9 1
    17    9   10 2
    18    9   42 1
    19   10   11 1
    20   10   13 1
    21   11   12 2
    22   13   18 ar
    23   13   14 ar
    24   14   15 ar
    25   14   20 1
    26   15   16 ar
    27   15   43 1
    28   16   17 ar
    29   16   44 1
    30   17   18 ar
    31   17   45 1
    32   18   19 1
    33   21   22 1
    34   21   46 1
    35   22   27 ar
    36   22   23 ar
    37   23   24 ar
    38   23   47 1
    39   24   25 ar
    40   24   48 1
    41   25   26 ar
    42   25   28 1
    43   26   27 ar
    44   26   49 1
    45   27   50 1
    46   28   29 1
    47   29   30 1
    48   29   51 1
    49   29   52 1
    50   30   31 1
    51   30   53 1
    52   30   54 1
    53   31   55 1
    54   31   56 1
    55   31   68 1
    56   32   33 1
    57   32   57 1
    58   32   58 1
    59   32   68 1
    60   33   59 1
    61   33   60 1
    62   33   70 1
    63   34   35 1
    64   34   61 1
    65   34   62 1
    66   34   70 1
    67   35   63 1
    68   35   64 1
    69   35   68 1
    70   36   65 1
    71   36   66 1
    72   36   67 1
    73   36   70 1
    74   68   69 1
    75   70   71 1
@<TRIPOS>MOLECULE
ZINC03815517
   64    67     0     0     0
SMALL
USER_CHARGES

@<TRIPOS>ATOM
      1 C1          2.1337   -7.2540    1.5393 C.3       1 <0>        -0.1868
      2 C2          3.3723   -6.3811    1.7516 C.3       1 <0>        -0.0155
      3 C3          4.7329   -7.9270    0.4781 C.3       1 <0>        -0.0118
      4 C4          5.7036   -8.2566    1.6138 C.3       1 <0>        -0.1882
      5 C5          3.6500   -6.0682   -0.6333 C.3       1 <0>        -0.0020
      6 C6          3.4202   -4.5578   -0.5518 C.3       1 <0>         0.0263
      7 O1          4.6804   -3.8866   -0.4932 O.3       1 <0>        -0.3289
      8 C7          4.6539   -2.5291   -0.4170 C.ar      1 <0>         0.0934
      9 C8          5.8416   -1.8150   -0.3571 C.ar      1 <0>        -0.1196
     10 C9          5.8157   -0.4365   -0.2793 C.ar      1 <0>        -0.0696
     11 C10         4.6001    0.2348   -0.2614 C.ar      1 <0>         0.1467
     12 C11         3.4114   -0.4813   -0.3161 C.ar      1 <0>        -0.1097
     13 C12         3.4393   -1.8594   -0.3987 C.ar      1 <0>        -0.1804
     14 N1          4.5729    1.6322   -0.1825 N.pl3     1 <0>        -0.6585
     15 C13         5.5130    2.3844   -0.8722 C.ar      1 <0>         0.4310
     16 C14         5.5507    3.7601   -0.6897 C.ar      1 <0>        -0.2806
     17 C15         6.4962    4.5037   -1.3853 C.ar      1 <0>         0.2701
     18 C16         7.3803    3.8224   -2.2508 C.ar      1 <0>        -0.2225
     19 C17         8.3566    4.5463   -2.9754 C.2       1 <0>         0.0183
     20 C18         8.4274    5.9043   -2.8234 C.2       1 <0>        -0.1544
     21 C19         7.4907    6.5808   -1.9233 C.2       1 <0>         0.5499
     22 O2          7.5449    7.7903   -1.7886 O.2       1 <0>        -0.5042
     23 N2          6.5733    5.8697   -1.2387 N.am      1 <0>        -0.5204
     24 C20         5.6469    6.5572   -0.3358 C.3       1 <0>         0.0617
     25 C21         9.4399    6.6863   -3.5706 C.ar      1 <0>        -0.0144
     26 C22        10.6976    6.9187   -3.0125 C.ar      1 <0>        -0.0066
     27 C23        11.6391    7.6432   -3.7170 C.ar      1 <0>        -0.1060
     28 C24        11.3334    8.1483   -4.9680 C.ar      1 <0>        -0.0860
     29 C25        10.0865    7.9268   -5.5242 C.ar      1 <0>        -0.1058
     30 C26         9.1380    7.1986   -4.8330 C.ar      1 <0>        -0.0068
     31 Cl1         7.5736    6.9218   -5.5329 Cl        1 <0>        -0.0509
     32 Cl2        11.0806    6.2923   -1.4394 Cl        1 <0>        -0.0513
     33 C27         7.2722    2.4320   -2.3758 C.ar      1 <0>         0.2277
     34 N3          6.3594    1.7741   -1.6948 N.ar      1 <0>        -0.5479
     35 H1          1.4093   -7.0550    2.3291 H         1 <0>         0.1064
     36 H2          1.6884   -7.0237    0.5714 H         1 <0>         0.0789
     37 H3          2.4210   -8.3051    1.5662 H         1 <0>         0.0826
     38 H4          3.8815   -6.6890    2.6648 H         1 <0>         0.1313
     39 H5          3.0706   -5.3373    1.8380 H         1 <0>         0.1262
     40 H6          3.8726   -8.5942    0.5302 H         1 <0>         0.1329
     41 H7          5.2365   -8.0576   -0.4797 H         1 <0>         0.1294
     42 H8          6.1185   -9.2527    1.4596 H         1 <0>         0.1064
     43 H9          6.5111   -7.5245    1.6256 H         1 <0>         0.0803
     44 H10         5.1728   -8.2275    2.5654 H         1 <0>         0.0795
     45 H11         2.6941   -6.5745   -0.7673 H         1 <0>         0.1505
     46 H12         4.3011   -6.2916   -1.4784 H         1 <0>         0.1411
     47 H13         2.8430   -4.3259    0.3433 H         1 <0>         0.0847
     48 H14         2.8723   -4.2256   -1.4336 H         1 <0>         0.1075
     49 H15         6.7869   -2.3372   -0.3710 H         1 <0>         0.1351
     50 H16         6.7405    0.1194   -0.2326 H         1 <0>         0.1426
     51 H17         2.4656    0.0398   -0.2977 H         1 <0>         0.1317
     52 H18         2.5151   -2.4163   -0.4450 H         1 <0>         0.1289
     53 H19         3.8968    2.0746    0.3542 H         1 <0>         0.4223
     54 H20         4.8571    4.2442   -0.0181 H         1 <0>         0.1463
     55 H21         9.0371    4.0337   -3.6392 H         1 <0>         0.1475
     56 H22         6.0820    6.6071    0.6623 H         1 <0>         0.0776
     57 H23         5.4636    7.5669   -0.7032 H         1 <0>         0.0974
     58 H24         4.7056    6.0091   -0.2948 H         1 <0>         0.0861
     59 H25        12.6145    7.8197   -3.2883 H         1 <0>         0.1444
     60 H26        12.0715    8.7183   -5.5126 H         1 <0>         0.1465
     61 H27         9.8541    8.3239   -6.5014 H         1 <0>         0.1445
     62 H28         7.9409    1.8977   -3.0344 H         1 <0>         0.1762
     63 N4          4.3047   -6.5187    0.6130 N.4       1 <0>        -0.3968
     64 H29         5.1308   -5.9341    0.7858 H         1 <0>         0.4357
@<TRIPOS>BOND
     1    1    2 1
     2    1   35 1
     3    1   36 1
     4    1   37 1
     5    2   38 1
     6    2   39 1
     7    2   63 1
     8    3    4 1
     9    3   40 1
    10    3   41 1
    11    3   63 1
    12    4   42 1
    13    4   43 1
    14    4   44 1
    15    5    6 1
    16    5   45 1
    17    5   46 1
    18    5   63 1
    19    6    7 1
    20    6   47 1
    21    6   48 1
    22    7    8 1
    23    8   13 ar
    24    8    9 ar
    25    9   10 ar
    26    9   49 1
    27   10   11 ar
    28   10   50 1
    29   11   12 ar
    30   11   14 1
    31   12   13 ar
    32   12   51 1
    33   13   52 1
    34   14   15 1
    35   14   53 1
    36   15   34 ar
    37   15   16 ar
    38   16   17 ar
    39   16   54 1
    40   17   23 1
    41   17   18 ar
    42   18   19 1
    43   18   33 ar
    44   19   20 2
    45   19   55 1
    46   20   21 1
    47   20   25 1
    48   21   22 2
    49   21   23 am
    50   23   24 1
    51   24   56 1
    52   24   57 1
    53   24   58 1
    54   25   30 ar
    55   25   26 ar
    56   26   27 ar
    57   26   32 1
    58   27   28 ar
    59   27   59 1
    60   28   29 ar
    61   28   60 1
    62   29   30 ar
    63   29   61 1
    64   30   31 1
    65   33   34 ar
    66   33   62 1
    67   63   64 1
@<TRIPOS>MOLECULE
ZINC03815520
   42    45     0     0     0
SMALL
USER_CHARGES

@<TRIPOS>ATOM
      1 C1          2.0709    8.2772    0.4276 C.3       1 <0>         0.0699
      2 N1          3.3654    7.5914    0.4148 N.am      1 <0>        -0.5058
      3 C2          3.4085    6.2243    0.3059 C.ar      1 <0>         0.4669
      4 C3          4.6476    5.5480    0.2920 C.ar      1 <0>        -0.2764
      5 C4          5.8559    6.2749    0.3904 C.2       1 <0>         0.0306
      6 C5          5.8030    7.6389    0.4978 C.2       1 <0>        -0.1636
      7 C6          4.5011    8.3093    0.5096 C.2       1 <0>         0.5568
      8 O1          4.4450    9.5224    0.6053 O.2       1 <0>        -0.5011
      9 C7          7.0517    8.4294    0.6022 C.ar      1 <0>        -0.0104
     10 C8          7.6001    8.7111    1.8540 C.ar      1 <0>        -0.0063
     11 C9          8.7666    9.4453    1.9441 C.ar      1 <0>        -0.1064
     12 C10         9.3860    9.9087    0.7974 C.ar      1 <0>        -0.0873
     13 C11         8.8450    9.6370   -0.4464 C.ar      1 <0>        -0.1063
     14 C12         7.6814    8.9002   -0.5507 C.ar      1 <0>        -0.0066
     15 Cl1         7.0034    8.5613   -2.1124 Cl        1 <0>        -0.0501
     16 Cl2         6.8210    8.1355    3.2946 Cl        1 <0>        -0.0503
     17 C13         4.6477    4.1496    0.1787 C.ar      1 <0>         0.2649
     18 N2          3.4895    3.5229    0.0897 N.ar      1 <0>        -0.5685
     19 C14         2.3421    4.1926    0.1060 C.ar      1 <0>         0.6086
     20 N3          2.2918    5.5122    0.2062 N.ar      1 <0>        -0.5960
     21 N4          1.1585    3.4870    0.0093 N.pl3     1 <0>        -0.6257
     22 C15         1.1757    2.0869    0.0133 C.ar      1 <0>         0.1472
     23 C16         2.1234    1.4060    0.7660 C.ar      1 <0>        -0.0922
     24 C17         2.1394    0.0252    0.7698 C.ar      1 <0>        -0.1249
     25 C18         1.2089   -0.6817    0.0223 C.ar      1 <0>         0.0924
     26 C19         0.2619   -0.0022   -0.7299 C.ar      1 <0>        -0.1243
     27 C20         0.2448    1.3786   -0.7351 C.ar      1 <0>        -0.1258
     28 O2          1.2247   -2.0414    0.0273 O.3       1 <0>        -0.4987
     29 H1          1.7162    8.3647    1.4546 H         1 <0>         0.0746
     30 H2          2.1823    9.2718   -0.0042 H         1 <0>         0.0923
     31 H3          1.3510    7.7055   -0.1580 H         1 <0>         0.0950
     32 H4          6.8065    5.7624    0.3799 H         1 <0>         0.1508
     33 H5          9.1939    9.6612    2.9121 H         1 <0>         0.1438
     34 H6         10.2958   10.4856    0.8735 H         1 <0>         0.1454
     35 H7          9.3333   10.0020   -1.3378 H         1 <0>         0.1438
     36 H8          5.5758    3.5975    0.1643 H         1 <0>         0.1886
     37 H9          0.3154    3.9615   -0.0615 H         1 <0>         0.4270
     38 H10         2.8449    1.9561    1.3519 H         1 <0>         0.1394
     39 H11         2.8763   -0.5046    1.3552 H         1 <0>         0.1332
     40 H12        -0.4620   -0.5533   -1.3119 H         1 <0>         0.1339
     41 H13        -0.4923    1.9074   -1.3211 H         1 <0>         0.1309
     42 H14         0.6779   -2.4386    0.7189 H         1 <0>         0.3906
@<TRIPOS>BOND
     1    1    2 1
     2    1   29 1
     3    1   30 1
     4    1   31 1
     5    2    7 am
     6    2    3 1
     7    3   20 ar
     8    3    4 ar
     9    4    5 1
    10    4   17 ar
    11    5    6 2
    12    5   32 1
    13    6    7 1
    14    6    9 1
    15    7    8 2
    16    9   14 ar
    17    9   10 ar
    18   10   11 ar
    19   10   16 1
    20   11   12 ar
    21   11   33 1
    22   12   13 ar
    23   12   34 1
    24   13   14 ar
    25   13   35 1
    26   14   15 1
    27   17   18 ar
    28   17   36 1
    29   18   19 ar
    30   19   20 ar
    31   19   21 1
    32   21   22 1
    33   21   37 1
    34   22   27 ar
    35   22   23 ar
    36   23   24 ar
    37   23   38 1
    38   24   25 ar
    39   24   39 1
    40   25   26 ar
    41   25   28 1
    42   26   27 ar
    43   26   40 1
    44   27   41 1
    45   28   42 1
@<TRIPOS>MOLECULE
ZINC03815526
   45    47     0     0     0
SMALL
USER_CHARGES

@<TRIPOS>ATOM
      1 C1         -1.0888    7.6771    1.3060 C.3       1 <0>        -0.1661
      2 C2         -0.3116    8.0808    0.0514 C.3       1 <0>         0.1882
      3 C3         -0.0834    9.5937    0.0577 C.3       1 <0>        -0.1553
      4 C4         -1.1129    7.6911   -1.1924 C.3       1 <0>        -0.1661
      5 N1          0.9813    7.3920    0.0351 N.am      1 <0>        -0.7354
      6 C5          1.0271    6.0451    0.0271 C.2       1 <0>         0.6923
      7 O1         -0.0044    5.4017    0.0334 O.2       1 <0>        -0.5024
      8 N2          2.2165    5.4113    0.0120 N.am      1 <0>        -0.6600
      9 C6          2.2637    4.0248    0.0038 C.ar      1 <0>         0.4861
     10 C7          3.5175    3.3772   -0.0119 C.ar      1 <0>        -0.1745
     11 C8          3.5691    1.9925   -0.0207 C.ar      1 <0>         0.0528
     12 C9          2.3538    1.2883   -0.0135 C.ar      1 <0>        -0.2946
     13 C10         2.3093   -0.1164   -0.0211 C.ar      1 <0>         0.2667
     14 N3          1.1319   -0.7080   -0.0130 N.ar      1 <0>        -0.5713
     15 C11         0.0021   -0.0041    0.0020 C.ar      1 <0>         0.5964
     16 N4         -0.0158    1.3152    0.0093 N.ar      1 <0>        -0.5644
     17 C12         1.1301    2.0077    0.0021 C.ar      1 <0>         0.4327
     18 N5          1.1371    3.3420    0.0104 N.ar      1 <0>        -0.4737
     19 N6         -1.2016   -0.6831    0.0099 N.pl3     1 <0>        -0.8107
     20 C13         4.7691    4.1719   -0.0195 C.ar      1 <0>        -0.0172
     21 C14         5.3486    4.5545   -1.2295 C.ar      1 <0>        -0.0203
     22 C15         6.5146    5.2946   -1.2298 C.ar      1 <0>        -0.0942
     23 C16         7.1078    5.6565   -0.0335 C.ar      1 <0>        -0.0915
     24 C17         6.5381    5.2802    1.1692 C.ar      1 <0>        -0.0853
     25 C18         5.3689    4.5448    1.1828 C.ar      1 <0>        -0.0708
     26 Br1         4.5876    4.0380    2.8286 Br        1 <0>        -0.0224
     27 Cl1         4.6059    4.1008   -2.7316 Cl        1 <0>        -0.0432
     28 H1         -0.5179    7.9547    2.1921 H         1 <0>         0.0527
     29 H2         -2.0507    8.1896    1.3181 H         1 <0>         0.0638
     30 H3         -1.2514    6.5993    1.3015 H         1 <0>         0.0817
     31 H4          0.4703    9.8814   -0.8360 H         1 <0>         0.0621
     32 H5         -1.0453   10.1062    0.0699 H         1 <0>         0.0765
     33 H6          0.4875    9.8714    0.9438 H         1 <0>         0.0622
     34 H7         -1.2755    6.6133   -1.1968 H         1 <0>         0.0816
     35 H8         -2.0748    8.2036   -1.1802 H         1 <0>         0.0639
     36 H9         -0.5592    7.9788   -2.0861 H         1 <0>         0.0526
     37 H10         1.8043    7.9053    0.0300 H         1 <0>         0.3935
     38 H11         3.0395    5.9247    0.0070 H         1 <0>         0.4109
     39 H12         4.5146    1.4707   -0.0331 H         1 <0>         0.1509
     40 H13         3.2195   -0.6978   -0.0336 H         1 <0>         0.1806
     41 H14        -2.0367   -0.1897    0.0205 H         1 <0>         0.4185
     42 H15        -1.2113   -1.6530    0.0048 H         1 <0>         0.4169
     43 H16         6.9645    5.5912   -2.1658 H         1 <0>         0.1454
     44 H17         8.0193    6.2356   -0.0389 H         1 <0>         0.1461
     45 H18         7.0059    5.5658    2.0997 H         1 <0>         0.1444
@<TRIPOS>BOND
     1    1    2 1
     2    1   28 1
     3    1   29 1
     4    1   30 1
     5    2    3 1
     6    2    4 1
     7    2    5 1
     8    3   31 1
     9    3   32 1
    10    3   33 1
    11    4   34 1
    12    4   35 1
    13    4   36 1
    14    5    6 am
    15    5   37 1
    16    6    7 2
    17    6    8 am
    18    8    9 1
    19    8   38 1
    20    9   18 ar
    21    9   10 ar
    22   10   11 ar
    23   10   20 1
    24   11   12 ar
    25   11   39 1
    26   12   17 ar
    27   12   13 ar
    28   13   14 ar
    29   13   40 1
    30   14   15 ar
    31   15   16 ar
    32   15   19 1
    33   16   17 ar
    34   17   18 ar
    35   19   41 1
    36   19   42 1
    37   20   25 ar
    38   20   21 ar
    39   21   22 ar
    40   21   27 1
    41   22   23 ar
    42   22   43 1
    43   23   24 ar
    44   23   44 1
    45   24   25 ar
    46   24   45 1
    47   25   26 1
@<TRIPOS>MOLECULE
ZINC03815527
   49    52     0     0     0
SMALL
USER_CHARGES

@<TRIPOS>ATOM
      1 C1         -1.2722    2.1495   -1.3931 C.ar      1 <0>         0.0057
      2 C2         -0.1060    1.7142   -1.9896 C.ar      1 <0>        -0.1570
      3 C3          1.0975    2.3556   -1.7191 C.ar      1 <0>         0.1926
      4 C4          1.1067    3.4408   -0.8316 C.ar      1 <0>        -0.0983
      5 C5         -0.0730    3.8679   -0.2314 C.ar      1 <0>         0.0296
      6 C6         -1.2582    3.2182   -0.5127 C.ar      1 <0>        -0.6952
      7 S1         -2.7564    3.7546    0.2438 S.o2      1 <0>         2.7045
      8 O1         -3.6365    2.6389    0.2378 O.2       1 <0>        -0.9679
      9 O2         -2.3890    4.4286    1.4396 O.2       1 <0>        -0.9585
     10 N1         -3.4285    4.8928   -0.7537 N.pl3     1 <0>        -1.2500
     11 C7          2.5106    3.9014   -0.7512 C.2       1 <0>        -0.2438
     12 C8          3.0102    4.9474    0.0009 C.2       1 <0>         0.1210
     13 C9          4.4026    5.1542    0.0838 C.2       1 <0>        -0.0394
     14 C10         5.0459    6.3797    0.1896 C.2       1 <0>        -0.0493
     15 C11         6.4103    6.1182    0.2427 C.2       1 <0>        -0.1752
     16 C12         6.5864    4.7699    0.1702 C.2       1 <0>         0.0711
     17 N2          5.3749    4.1749    0.0807 N.pl3     1 <0>        -0.5077
     18 H1          5.2162    3.2198    0.0218 H         1 <0>         0.4153
     19 C13         7.9380    4.0960    0.1951 C.3       1 <0>        -0.0531
     20 C14         9.0098    5.1492   -0.1092 C.3       1 <0>        -0.1110
     21 C15         8.8020    6.3672    0.7949 C.3       1 <0>        -0.1184
     22 C16         7.5359    7.1157    0.3607 C.3       1 <0>        -0.0489
     23 C17         4.3901    7.7357    0.2372 C.3       1 <0>        -0.0414
     24 C18         4.0958    8.1091    1.6915 C.3       1 <0>        -0.1470
     25 C19         3.4400    9.4651    1.7391 C.2       1 <0>         0.4593
     26 O3          3.2296   10.0707    0.7149 O.co2     1 <0>        -0.6415
     27 C20         3.2581    3.0059   -1.6433 C.2       1 <0>         0.5594
     28 O4          4.4559    3.0496   -1.8617 O.2       1 <0>        -0.5080
     29 N3          2.3897    2.1303   -2.1771 N.am      1 <0>        -0.6516
     30 H2         -2.2039    1.6489   -1.6117 H         1 <0>         0.1488
     31 H3         -0.1291    0.8767   -2.6712 H         1 <0>         0.1364
     32 H4         -0.0619    4.7041    0.4520 H         1 <0>         0.1512
     33 H5         -2.9831    5.1372   -1.5800 H         1 <0>         0.4175
     34 H6         -4.2675    5.3152   -0.5117 H         1 <0>         0.4205
     35 H7          2.3342    5.6066    0.5253 H         1 <0>         0.1576
     36 H8          7.9704    3.3105   -0.5599 H         1 <0>         0.0735
     37 H9          8.1155    3.6658    1.1808 H         1 <0>         0.0774
     38 H10         8.9331    5.4543   -1.1528 H         1 <0>         0.0670
     39 H11         9.9973    4.7256    0.0735 H         1 <0>         0.0674
     40 H12         9.6626    7.0311    0.7135 H         1 <0>         0.0654
     41 H13         8.6933    6.0383    1.8284 H         1 <0>         0.0639
     42 H14         7.7049    7.5943   -0.6039 H         1 <0>         0.0683
     43 H15         7.2816    7.8697    1.1056 H         1 <0>         0.0758
     44 H16         5.0578    8.4778   -0.2005 H         1 <0>         0.0759
     45 H17         3.4577    7.7084   -0.3267 H         1 <0>         0.0686
     46 H18         3.4281    7.3670    2.1291 H         1 <0>         0.0620
     47 H19         5.0282    8.1364    2.2554 H         1 <0>         0.0650
     48 H20         2.6339    1.4303   -2.8026 H         1 <0>         0.4173
     49 O5          3.0896   10.0001    2.9192 O.co2     1 <0>        -0.7751
@<TRIPOS>BOND
     1    1    6 ar
     2    1    2 ar
     3    1   30 1
     4    2    3 ar
     5    2   31 1
     6    3   29 1
     7    3    4 ar
     8    4    5 ar
     9    4   11 1
    10    5    6 ar
    11    5   32 1
    12    6    7 1
    13    7    8 2
    14    7    9 2
    15    7   10 1
    16   10   33 1
    17   10   34 1
    18   11   12 2
    19   11   27 1
    20   12   13 1
    21   12   35 1
    22   13   17 1
    23   13   14 2
    24   14   15 1
    25   14   23 1
    26   15   22 1
    27   15   16 2
    28   16   17 1
    29   16   19 1
    30   17   18 1
    31   19   20 1
    32   19   36 1
    33   19   37 1
    34   20   21 1
    35   20   38 1
    36   20   39 1
    37   21   22 1
    38   21   40 1
    39   21   41 1
    40   22   42 1
    41   22   43 1
    42   23   24 1
    43   23   44 1
    44   23   45 1
    45   24   25 1
    46   24   46 1
    47   24   47 1
    48   25   26 2
    49   25   49 1
    50   27   28 2
    51   27   29 am
    52   29   48 1
@<TRIPOS>MOLECULE
ZINC03815529
   68    72     0     0     0
SMALL
USER_CHARGES

@<TRIPOS>ATOM
      1 C1          8.0418    5.9497   -0.5473 C.3       1 <0>         0.0607
      2 N1          8.9067    5.0536   -1.3186 N.am      1 <0>        -0.5201
      3 C2          8.5795    3.7222   -1.4350 C.ar      1 <0>         0.2696
      4 C3          7.4375    3.2089   -0.8317 C.ar      1 <0>        -0.2749
      5 C4          7.1507    1.8590   -0.9789 C.ar      1 <0>         0.4234
      6 N2          7.9443    1.0575   -1.6819 N.ar      1 <0>        -0.5500
      7 C5          9.0356    1.4935   -2.2718 C.ar      1 <0>         0.2246
      8 C6          9.4002    2.8422   -2.1740 C.ar      1 <0>        -0.2153
      9 C7         10.5707    3.3287   -2.8027 C.2       1 <0>         0.0115
     10 C8         10.8893    4.6540   -2.6823 C.2       1 <0>        -0.1446
     11 C9         10.0135    5.5409   -1.9131 C.2       1 <0>         0.5480
     12 O1         10.2891    6.7227   -1.8064 O.2       1 <0>        -0.4984
     13 C10        12.1092    5.1895   -3.3305 C.ar      1 <0>        -0.0191
     14 C11        13.3211    5.2047   -2.6389 C.ar      1 <0>        -0.0060
     15 C12        14.4557    5.7004   -3.2508 C.ar      1 <0>        -0.1053
     16 C13        14.3903    6.1908   -4.5426 C.ar      1 <0>        -0.0839
     17 C14        13.1909    6.1839   -5.2317 C.ar      1 <0>        -0.1048
     18 C15        12.0500    5.6862   -4.6332 C.ar      1 <0>        -0.0063
     19 Cl1        10.5456    5.6790   -5.4995 Cl        1 <0>        -0.0508
     20 Cl2        13.4037    4.5962   -1.0151 Cl        1 <0>        -0.0525
     21 N3          6.0130    1.3360   -0.3808 N.pl3     1 <0>        -0.6594
     22 C16         5.7805   -0.0442   -0.4059 C.ar      1 <0>         0.1619
     23 C17         4.4834   -0.5284   -0.5135 C.ar      1 <0>        -0.1153
     24 C18         4.2553   -1.8900   -0.5426 C.ar      1 <0>        -0.1751
     25 C19         5.3206   -2.7741   -0.4547 C.ar      1 <0>         0.0769
     26 C20         6.6161   -2.2914   -0.3420 C.ar      1 <0>        -0.1148
     27 C21         6.8464   -0.9300   -0.3175 C.ar      1 <0>        -0.0743
     28 O2          5.0947   -4.1149   -0.4787 O.3       1 <0>        -0.3346
     29 C22         3.7361   -4.5419   -0.5967 C.3       1 <0>         0.0218
     30 C23         3.6810   -6.0709   -0.6067 C.3       1 <0>         0.0041
     31 C24         4.5669   -7.9973    0.5634 C.3       1 <0>        -0.0263
     32 C25         5.1438   -8.4731    1.8988 C.3       1 <0>        -0.0272
     33 C26         3.7411   -6.8860    3.0702 C.3       1 <0>        -0.0261
     34 C27         3.1642   -6.4102    1.7348 C.3       1 <0>        -0.0320
     35 C28         4.6270   -8.8124    4.2403 C.3       1 <0>        -0.0461
     36 H1          8.3690    5.9647    0.4923 H         1 <0>         0.0785
     37 H2          8.1003    6.9564   -0.9612 H         1 <0>         0.0990
     38 H3          7.0125    5.5948   -0.5992 H         1 <0>         0.0860
     39 H4          6.7844    3.8496   -0.2578 H         1 <0>         0.1473
     40 H5          9.6533    0.8088   -2.8339 H         1 <0>         0.1769
     41 H6         11.2045    2.6629   -3.3696 H         1 <0>         0.1487
     42 H7         15.3952    5.7086   -2.7183 H         1 <0>         0.1453
     43 H8         15.2796    6.5811   -5.0151 H         1 <0>         0.1479
     44 H9         13.1466    6.5683   -6.2400 H         1 <0>         0.1456
     45 H10         5.3789    1.9268    0.0548 H         1 <0>         0.4236
     46 H11         3.6535    0.1598   -0.5782 H         1 <0>         0.1340
     47 H12         3.2469   -2.2667   -0.6304 H         1 <0>         0.1276
     48 H13         7.4449   -2.9804   -0.2729 H         1 <0>         0.1337
     49 H14         7.8552   -0.5543   -0.2301 H         1 <0>         0.1480
     50 H15         3.1615   -4.1631    0.2486 H         1 <0>         0.0847
     51 H16         3.3136   -4.1570   -1.5249 H         1 <0>         0.1174
     52 H17         2.6523   -6.3964   -0.7607 H         1 <0>         0.1585
     53 H18         4.3073   -6.4517   -1.4134 H         1 <0>         0.1537
     54 H19         3.6955   -8.6002    0.3082 H         1 <0>         0.1571
     55 H20         5.3217   -8.1004   -0.2162 H         1 <0>         0.1761
     56 H21         6.0313   -7.8881    2.1406 H         1 <0>         0.1563
     57 H22         5.4117   -9.5270    1.8243 H         1 <0>         0.1762
     58 H23         4.6126   -6.2831    3.3253 H         1 <0>         0.1561
     59 H24         2.9864   -6.7825    3.8499 H         1 <0>         0.1758
     60 H25         2.8963   -5.3563    1.8093 H         1 <0>         0.1718
     61 H26         2.2766   -6.9948    1.4928 H         1 <0>         0.1586
     62 H27         3.8386   -8.7309    4.9885 H         1 <0>         0.1360
     63 H28         4.9135   -9.8579    4.1267 H         1 <0>         0.1364
     64 H29         5.4922   -8.2312    4.5593 H         1 <0>         0.1328
     65 N4          4.1934   -6.5726    0.6863 N.4       1 <0>        -0.4088
     66 H30         5.0253   -6.0308    0.9483 H         1 <0>         0.4455
     67 N5          4.1148   -8.3108    2.9472 N.4       1 <0>        -0.4060
     68 H31         3.2829   -8.8527    2.6851 H         1 <0>         0.4402
@<TRIPOS>BOND
     1    1    2 1
     2    1   36 1
     3    1   37 1
     4    1   38 1
     5    2   11 am
     6    2    3 1
     7    3    8 ar
     8    3    4 ar
     9    4    5 ar
    10    4   39 1
    11    5    6 ar
    12    5   21 1
    13    6    7 ar
    14    7    8 ar
    15    7   40 1
    16    8    9 1
    17    9   10 2
    18    9   41 1
    19   10   11 1
    20   10   13 1
    21   11   12 2
    22   13   18 ar
    23   13   14 ar
    24   14   15 ar
    25   14   20 1
    26   15   16 ar
    27   15   42 1
    28   16   17 ar
    29   16   43 1
    30   17   18 ar
    31   17   44 1
    32   18   19 1
    33   21   22 1
    34   21   45 1
    35   22   27 ar
    36   22   23 ar
    37   23   24 ar
    38   23   46 1
    39   24   25 ar
    40   24   47 1
    41   25   26 ar
    42   25   28 1
    43   26   27 ar
    44   26   48 1
    45   27   49 1
    46   28   29 1
    47   29   30 1
    48   29   50 1
    49   29   51 1
    50   30   52 1
    51   30   53 1
    52   30   65 1
    53   31   32 1
    54   31   54 1
    55   31   55 1
    56   31   65 1
    57   32   56 1
    58   32   57 1
    59   32   67 1
    60   33   34 1
    61   33   58 1
    62   33   59 1
    63   33   67 1
    64   34   60 1
    65   34   61 1
    66   34   65 1
    67   35   62 1
    68   35   63 1
    69   35   64 1
    70   35   67 1
    71   65   66 1
    72   67   68 1
@<TRIPOS>MOLECULE
ZINC03815532
   46    49     0     0     0
SMALL
USER_CHARGES

@<TRIPOS>ATOM
      1 C1         -1.2677    2.1516   -1.4090 C.ar      1 <0>        -0.0484
      2 C2         -0.1024    1.7178   -1.9971 C.ar      1 <0>        -0.1532
      3 C3          1.1050    2.3564   -1.7213 C.ar      1 <0>         0.1213
      4 C4          1.1203    3.4436   -0.8321 C.ar      1 <0>        -0.1070
      5 C5         -0.0517    3.8801   -0.2335 C.ar      1 <0>        -0.0309
      6 C6         -1.2546    3.2316   -0.5189 C.ar      1 <0>        -0.1286
      7 C7         -2.5081    3.6863    0.1115 C.2       1 <0>         0.4922
      8 O1         -2.4949    4.6268    0.8806 O.co2     1 <0>        -0.6242
      9 C8          2.5282    3.8943   -0.7511 C.2       1 <0>        -0.2060
     10 C9          3.0359    4.9367    0.0003 C.2       1 <0>         0.0821
     11 C10         4.4300    5.1330    0.0826 C.2       1 <0>        -0.0141
     12 C11         5.0825    6.3537    0.1878 C.2       1 <0>        -0.0704
     13 C12         6.4449    6.0818    0.2411 C.2       1 <0>        -0.1745
     14 C13         6.6108    4.7322    0.1692 C.2       1 <0>         0.0471
     15 N1          5.3947    4.1465    0.0795 N.pl3     1 <0>        -0.5050
     16 H1          5.2288    3.1926    0.0207 H         1 <0>         0.4145
     17 C14         7.9572    4.0481    0.1948 C.3       1 <0>        -0.0482
     18 C15         9.0370    5.0930   -0.1097 C.3       1 <0>        -0.1092
     19 C16         8.8382    6.3129    0.7938 C.3       1 <0>        -0.1166
     20 C17         7.5780    7.0708    0.3590 C.3       1 <0>        -0.0462
     21 C18         4.4370    7.7146    0.2345 C.3       1 <0>        -0.0377
     22 C19         4.1452    8.0911    1.6885 C.3       1 <0>        -0.1462
     23 C20         3.4997    9.4520    1.7352 C.2       1 <0>         0.4605
     24 O2          3.2941   10.0587    0.7107 O.co2     1 <0>        -0.6420
     25 C21         3.2677    2.9922   -1.6431 C.2       1 <0>         0.5581
     26 O3          4.4657    3.0256   -1.8615 O.2       1 <0>        -0.5300
     27 N2          2.3923    2.1237   -2.1763 N.am      1 <0>        -0.6487
     28 H2         -2.1991    1.6530   -1.6330 H         1 <0>         0.1375
     29 H3         -0.1241    0.8810   -2.6794 H         1 <0>         0.1181
     30 H4         -0.0340    4.7164    0.4496 H         1 <0>         0.1361
     31 H5          2.3651    5.6012    0.5245 H         1 <0>         0.1552
     32 H6          7.9838    3.2621   -0.5599 H         1 <0>         0.0700
     33 H7          8.1312    3.6170    1.1807 H         1 <0>         0.0723
     34 H8          8.9630    5.3982   -1.1535 H         1 <0>         0.0657
     35 H9         10.0213    4.6620    0.0735 H         1 <0>         0.0630
     36 H10         9.7038    6.9703    0.7124 H         1 <0>         0.0611
     37 H11         8.7267    5.9853    1.8274 H         1 <0>         0.0625
     38 H12         7.7509    7.5477   -0.6058 H         1 <0>         0.0649
     39 H13         7.3292    7.8271    1.1035 H         1 <0>         0.0729
     40 H14         5.1104    8.4514   -0.2034 H         1 <0>         0.0706
     41 H15         3.5046    7.6941   -0.3296 H         1 <0>         0.0686
     42 H16         3.4717    7.3543    2.1264 H         1 <0>         0.0635
     43 H17         5.0776    8.1116    2.2527 H         1 <0>         0.0619
     44 H18         2.6318    1.4218   -2.8015 H         1 <0>         0.4086
     45 O4         -3.6678    3.0588   -0.1656 O.co2     1 <0>        -0.7613
     46 O5          3.1531    9.9903    2.9150 O.co2     1 <0>        -0.7800
@<TRIPOS>BOND
     1    1    6 ar
     2    1    2 ar
     3    1   28 1
     4    2    3 ar
     5    2   29 1
     6    3   27 1
     7    3    4 ar
     8    4    5 ar
     9    4    9 1
    10    5    6 ar
    11    5   30 1
    12    6    7 1
    13    7    8 2
    14    7   45 1
    15    9   10 2
    16    9   25 1
    17   10   11 1
    18   10   31 1
    19   11   15 1
    20   11   12 2
    21   12   13 1
    22   12   21 1
    23   13   20 1
    24   13   14 2
    25   14   15 1
    26   14   17 1
    27   15   16 1
    28   17   18 1
    29   17   32 1
    30   17   33 1
    31   18   19 1
    32   18   34 1
    33   18   35 1
    34   19   20 1
    35   19   36 1
    36   19   37 1
    37   20   38 1
    38   20   39 1
    39   21   22 1
    40   21   40 1
    41   21   41 1
    42   22   23 1
    43   22   42 1
    44   22   43 1
    45   23   24 2
    46   23   46 1
    47   25   26 2
    48   25   27 am
    49   27   44 1
@<TRIPOS>MOLECULE
ZINC03815535
   65    68     0     0     0
SMALL
USER_CHARGES

@<TRIPOS>ATOM
      1 C1         -2.2664    2.6406    5.7207 C.3       1 <0>         0.0704
      2 N1         -1.0652    1.8152    5.8687 N.am      1 <0>        -0.5069
      3 C2         -0.4094    1.3640    4.7512 C.ar      1 <0>         0.4680
      4 C3          0.7497    0.5679    4.8763 C.ar      1 <0>        -0.2728
      5 C4          1.2453    0.2291    6.1562 C.2       1 <0>         0.0214
      6 C5          0.5843    0.6839    7.2655 C.2       1 <0>        -0.1508
      7 C6         -0.6156    1.5073    7.1005 C.2       1 <0>         0.5540
      8 O1         -1.2098    1.9161    8.0821 O.2       1 <0>        -0.4927
      9 C7          1.0781    0.3458    8.6209 C.ar      1 <0>        -0.0178
     10 C8          0.6245   -0.8061    9.2648 C.ar      1 <0>        -0.0058
     11 C9          1.0925   -1.1181   10.5262 C.ar      1 <0>        -0.1048
     12 C10         2.0012   -0.2863   11.1554 C.ar      1 <0>        -0.0836
     13 C11         2.4509    0.8598   10.5247 C.ar      1 <0>        -0.1048
     14 C12         1.9945    1.1808    9.2613 C.ar      1 <0>        -0.0059
     15 Cl1         2.5591    2.6202    8.4720 Cl        1 <0>        -0.0517
     16 Cl2        -0.5209   -1.8478    8.4796 Cl        1 <0>        -0.0520
     17 C13         1.3899    0.1267    3.7087 C.ar      1 <0>         0.2657
     18 N2          0.8797    0.4693    2.5405 N.ar      1 <0>        -0.5847
     19 C14        -0.2103    1.2245    2.4609 C.ar      1 <0>         0.6066
     20 N3         -0.8488    1.6644    3.5342 N.ar      1 <0>        -0.6019
     21 N4         -0.6984    1.5583    1.2133 N.pl3     1 <0>        -0.6967
     22 C15        -0.0127    1.0858    0.0080 C.3       1 <0>         0.1363
     23 C16        -0.7527    1.5927   -1.2315 C.3       1 <0>        -0.1354
     24 C17        -0.0366    1.0992   -2.4903 C.3       1 <0>        -0.1146
     25 C18        -0.7766    1.6061   -3.7298 C.3       1 <0>        -0.1508
     26 C19        -0.0604    1.1126   -4.9886 C.3       1 <0>        -0.0078
     27 C20        -2.1059    0.9933   -6.2796 C.3       1 <0>        -0.0321
     28 C21        -2.8417    1.5842   -7.4845 C.3       1 <0>        -0.0265
     29 C22        -0.7248    1.9407   -8.6026 C.3       1 <0>        -0.0269
     30 C23         0.0111    1.3497   -7.3977 C.3       1 <0>        -0.0265
     31 C24        -2.7703    1.8213   -9.8936 C.3       1 <0>        -0.0462
     32 H1         -3.1464    1.9984    5.6843 H         1 <0>         0.0745
     33 H2         -2.3472    3.3201    6.5692 H         1 <0>         0.0938
     34 H3         -2.1993    3.2176    4.7983 H         1 <0>         0.0929
     35 H4          2.1320   -0.3790    6.2574 H         1 <0>         0.1516
     36 H5          0.7451   -2.0112   11.0242 H         1 <0>         0.1455
     37 H6          2.3610   -0.5326   12.1435 H         1 <0>         0.1479
     38 H7          3.1601    1.5053   11.0215 H         1 <0>         0.1456
     39 H8          2.2790   -0.4839    3.7644 H         1 <0>         0.1870
     40 H9         -1.4954    2.1056    1.1349 H         1 <0>         0.4154
     41 H10         0.0021   -0.0041    0.0020 H         1 <0>         0.0725
     42 H11         1.0099    1.4631    0.0003 H         1 <0>         0.0728
     43 H12        -1.7753    1.2154   -1.2238 H         1 <0>         0.0750
     44 H13        -0.7675    2.6825   -1.2255 H         1 <0>         0.0761
     45 H14         0.9860    1.4765   -2.4981 H         1 <0>         0.0834
     46 H15        -0.0218    0.0093   -2.4963 H         1 <0>         0.0822
     47 H16        -1.7991    1.2288   -3.7221 H         1 <0>         0.0882
     48 H17        -0.7913    2.6960   -3.7239 H         1 <0>         0.0924
     49 H18         0.9622    1.4899   -4.9964 H         1 <0>         0.1439
     50 H19        -0.0456    0.0228   -4.9946 H         1 <0>         0.1418
     51 H20        -2.0072   -0.0848   -6.4067 H         1 <0>         0.1570
     52 H21        -2.6699    1.2025   -5.3706 H         1 <0>         0.1746
     53 H22        -2.9645    2.6582   -7.3447 H         1 <0>         0.1556
     54 H23        -3.8212    1.1151   -7.5784 H         1 <0>         0.1752
     55 H24        -0.8235    3.0187   -8.4755 H         1 <0>         0.1556
     56 H25        -0.1606    1.7318   -9.5115 H         1 <0>         0.1755
     57 H26         0.9905    1.8188   -7.3039 H         1 <0>         0.1751
     58 H27         0.1338    0.2757   -7.5375 H         1 <0>         0.1563
     59 H28        -2.2012    1.5640  -10.7869 H         1 <0>         0.1364
     60 H29        -3.7552    1.3570   -9.9439 H         1 <0>         0.1362
     61 H30        -2.8816    2.9039   -9.8329 H         1 <0>         0.1328
     62 N5         -0.7746    1.6269   -6.1767 N.4       1 <0>        -0.4068
     63 H31        -0.8946    2.6421   -6.0803 H         1 <0>         0.4375
     64 N6         -2.0563    1.3070   -8.7054 N.4       1 <0>        -0.4065
     65 H32        -1.9363    0.2918   -8.8018 H         1 <0>         0.4405
@<TRIPOS>BOND
     1    1    2 1
     2    1   32 1
     3    1   33 1
     4    1   34 1
     5    2    7 am
     6    2    3 1
     7    3   20 ar
     8    3    4 ar
     9    4    5 1
    10    4   17 ar
    11    5    6 2
    12    5   35 1
    13    6    7 1
    14    6    9 1
    15    7    8 2
    16    9   14 ar
    17    9   10 ar
    18   10   11 ar
    19   10   16 1
    20   11   12 ar
    21   11   36 1
    22   12   13 ar
    23   12   37 1
    24   13   14 ar
    25   13   38 1
    26   14   15 1
    27   17   18 ar
    28   17   39 1
    29   18   19 ar
    30   19   20 ar
    31   19   21 1
    32   21   22 1
    33   21   40 1
    34   22   23 1
    35   22   41 1
    36   22   42 1
    37   23   24 1
    38   23   43 1
    39   23   44 1
    40   24   25 1
    41   24   45 1
    42   24   46 1
    43   25   26 1
    44   25   47 1
    45   25   48 1
    46   26   49 1
    47   26   50 1
    48   26   62 1
    49   27   28 1
    50   27   51 1
    51   27   52 1
    52   27   62 1
    53   28   53 1
    54   28   54 1
    55   28   64 1
    56   29   30 1
    57   29   55 1
    58   29   56 1
    59   29   64 1
    60   30   57 1
    61   30   58 1
    62   30   62 1
    63   31   59 1
    64   31   60 1
    65   31   61 1
    66   31   64 1
    67   62   63 1
    68   64   65 1
@<TRIPOS>MOLECULE
ZINC03815536
   67    70     0     0     0
SMALL
USER_CHARGES

@<TRIPOS>ATOM
      1 C1          3.4622  -10.1764    0.4623 C.3       1 <0>        -0.1901
      2 C2          3.0710   -8.7032    0.5943 C.3       1 <0>        -0.0105
      3 C3          1.2360   -8.9043   -0.9724 C.3       1 <0>        -0.0123
      4 C4          0.9393   -8.8001   -2.4698 C.3       1 <0>        -0.1905
      5 C5          2.3399   -6.7709   -0.6684 C.3       1 <0>        -0.0044
      6 C6          3.6996   -6.1003   -0.8747 C.3       1 <0>        -0.1509
      7 C7          3.5304   -4.5803   -0.8314 C.3       1 <0>         0.0637
      8 O1          4.8003   -3.9540   -1.0242 O.3       1 <0>        -0.3137
      9 C8          4.8261   -2.5944   -1.0133 C.ar      1 <0>         0.1030
     10 C9          6.0260   -1.9224   -1.1945 C.ar      1 <0>        -0.1241
     11 C10         6.0532   -0.5418   -1.1832 C.ar      1 <0>        -0.0682
     12 C11         4.8787    0.1739   -0.9907 C.ar      1 <0>         0.1366
     13 C12         3.6786   -0.4998   -0.8041 C.ar      1 <0>        -0.1095
     14 C13         3.6525   -1.8803   -0.8205 C.ar      1 <0>        -0.1857
     15 N1          4.9053    1.5734   -0.9791 N.pl3     1 <0>        -0.6568
     16 C14         5.7426    2.2586   -1.8479 C.ar      1 <0>         0.4335
     17 C15         5.8502    3.6387   -1.7428 C.ar      1 <0>        -0.2829
     18 C16         6.6915    4.3148   -2.6179 C.ar      1 <0>         0.2703
     19 C17         7.4024    3.5631   -3.5795 C.ar      1 <0>        -0.2253
     20 C18         8.2688    4.2171   -4.4871 C.2       1 <0>         0.0206
     21 C19         8.4036    5.5770   -4.4166 C.2       1 <0>        -0.1578
     22 C20         7.6463    6.3273   -3.4121 C.2       1 <0>         0.5505
     23 O2          7.7575    7.5387   -3.3484 O.2       1 <0>        -0.5061
     24 N2          6.8319    5.6821   -2.5541 N.am      1 <0>        -0.5204
     25 C21         6.0855    6.4432   -1.5491 C.3       1 <0>         0.0620
     26 C22         9.3037    6.2867   -5.3552 C.ar      1 <0>        -0.0129
     27 C23        10.6418    6.4965   -5.0194 C.ar      1 <0>        -0.0068
     28 C24        11.4772    7.1533   -5.9017 C.ar      1 <0>        -0.1062
     29 C25        10.9871    7.6133   -7.1107 C.ar      1 <0>        -0.0867
     30 C26         9.6602    7.4140   -7.4470 C.ar      1 <0>        -0.1062
     31 C27         8.8157    6.7533   -6.5764 C.ar      1 <0>        -0.0069
     32 Cl1         7.1508    6.5042   -7.0004 Cl        1 <0>        -0.0513
     33 Cl2        11.2569    5.9267   -3.4993 Cl        1 <0>        -0.0509
     34 C28         7.2342    2.1736   -3.6158 C.ar      1 <0>         0.2284
     35 N3          6.4253    1.5812   -2.7647 N.ar      1 <0>        -0.5469
     36 H1          3.8804  -10.5273    1.4057 H         1 <0>         0.1070
     37 H2          2.5794  -10.7659    0.2146 H         1 <0>         0.0804
     38 H3          4.2054  -10.2856   -0.3276 H         1 <0>         0.0808
     39 H4          3.9538   -8.1137    0.8420 H         1 <0>         0.1296
     40 H5          2.3278   -8.5940    1.3842 H         1 <0>         0.1315
     41 H6          1.3068   -9.9542   -0.6883 H         1 <0>         0.1326
     42 H7          0.4332   -8.4287   -0.4090 H         1 <0>         0.1312
     43 H8          0.9411   -7.7518   -2.7684 H         1 <0>         0.0788
     44 H9          1.7034   -9.3389   -3.0300 H         1 <0>         0.0816
     45 H10        -0.0382   -9.2354   -2.6776 H         1 <0>         0.1070
     46 H11         1.9225   -6.4588    0.2889 H         1 <0>         0.1350
     47 H12         1.6646   -6.4778   -1.4722 H         1 <0>         0.1334
     48 H13         4.1060   -6.3932   -1.8428 H         1 <0>         0.0990
     49 H14         4.3824   -6.4125   -0.0845 H         1 <0>         0.0976
     50 H15         3.1240   -4.2874    0.1366 H         1 <0>         0.0710
     51 H16         2.8476   -4.2681   -1.6216 H         1 <0>         0.0714
     52 H17         6.9392   -2.4791   -1.3442 H         1 <0>         0.1348
     53 H18         6.9875   -0.0188   -1.3243 H         1 <0>         0.1413
     54 H19         2.7655    0.0560   -0.6499 H         1 <0>         0.1290
     55 H20         2.7188   -2.4043   -0.6791 H         1 <0>         0.1270
     56 H21         4.3385    2.0642   -0.3637 H         1 <0>         0.4212
     57 H22         5.2898    4.1777   -0.9932 H         1 <0>         0.1458
     58 H23         8.8166    3.6505   -5.2255 H         1 <0>         0.1470
     59 H24         6.6786    6.5211   -0.6379 H         1 <0>         0.0773
     60 H25         5.8750    7.4417   -1.9321 H         1 <0>         0.0969
     61 H26         5.1477    5.9330   -1.3296 H         1 <0>         0.0860
     62 H27        12.5142    7.3121   -5.6451 H         1 <0>         0.1442
     63 H28        11.6433    8.1306   -7.7950 H         1 <0>         0.1462
     64 H29         9.2838    7.7757   -8.3925 H         1 <0>         0.1441
     65 H30         7.7707    1.5859   -4.3460 H         1 <0>         0.1757
     66 N4          2.5259   -8.2369   -0.6980 N.4       1 <0>        -0.3963
     67 H31         3.1895   -8.4739   -1.4448 H         1 <0>         0.4273
@<TRIPOS>BOND
     1    1    2 1
     2    1   36 1
     3    1   37 1
     4    1   38 1
     5    2   39 1
     6    2   40 1
     7    2   66 1
     8    3    4 1
     9    3   41 1
    10    3   42 1
    11    3   66 1
    12    4   43 1
    13    4   44 1
    14    4   45 1
    15    5    6 1
    16    5   46 1
    17    5   47 1
    18    5   66 1
    19    6    7 1
    20    6   48 1
    21    6   49 1
    22    7    8 1
    23    7   50 1
    24    7   51 1
    25    8    9 1
    26    9   14 ar
    27    9   10 ar
    28   10   11 ar
    29   10   52 1
    30   11   12 ar
    31   11   53 1
    32   12   13 ar
    33   12   15 1
    34   13   14 ar
    35   13   54 1
    36   14   55 1
    37   15   16 1
    38   15   56 1
    39   16   35 ar
    40   16   17 ar
    41   17   18 ar
    42   17   57 1
    43   18   24 1
    44   18   19 ar
    45   19   20 1
    46   19   34 ar
    47   20   21 2
    48   20   58 1
    49   21   22 1
    50   21   26 1
    51   22   23 2
    52   22   24 am
    53   24   25 1
    54   25   59 1
    55   25   60 1
    56   25   61 1
    57   26   31 ar
    58   26   27 ar
    59   27   28 ar
    60   27   33 1
    61   28   29 ar
    62   28   62 1
    63   29   30 ar
    64   29   63 1
    65   30   31 ar
    66   30   64 1
    67   31   32 1
    68   34   35 ar
    69   34   65 1
    70   66   67 1
@<TRIPOS>MOLECULE
ZINC03815537
   44    47     0     0     0
SMALL
USER_CHARGES

@<TRIPOS>ATOM
      1 C1         -3.9598    6.4151    1.6200 C.ar      1 <0>        -0.0652
      2 C2         -2.6378    6.4420    2.0160 C.ar      1 <0>        -0.1314
      3 C3         -1.7837    5.4018    1.6679 C.ar      1 <0>         0.1484
      4 C4         -2.2831    4.3350    0.9077 C.ar      1 <0>        -0.0734
      5 C5         -3.6185    4.3131    0.5195 C.ar      1 <0>        -0.0428
      6 C6         -4.4519    5.3559    0.8746 C.ar      1 <0>        -0.1091
      7 Br1        -6.2662    5.3382    0.3421 Br        1 <0>        -0.0460
      8 C7         -1.1529    3.4011    0.7073 C.2       1 <0>        -0.2395
      9 C8         -1.1650    2.2025    0.0198 C.2       1 <0>         0.1180
     10 C9          0.0417    1.5105   -0.2121 C.2       1 <0>        -0.0373
     11 C10         0.2006    0.1326   -0.2662 C.2       1 <0>        -0.0521
     12 C11         1.5456   -0.1107   -0.5208 C.2       1 <0>        -0.1752
     13 C12         2.1823    1.0891   -0.6171 C.2       1 <0>         0.0686
     14 N1          1.2794    2.0793   -0.4325 N.pl3     1 <0>        -0.5065
     15 H1          1.4700    3.0302   -0.4526 H         1 <0>         0.4157
     16 C13         3.6612    1.2368   -0.8866 C.3       1 <0>        -0.0526
     17 C14         4.3406   -0.1094   -0.6096 C.3       1 <0>        -0.1110
     18 C15         3.5884   -1.2230   -1.3432 C.3       1 <0>        -0.1182
     19 C16         2.2275   -1.4477   -0.6731 C.3       1 <0>        -0.0488
     20 C17        -0.8792   -0.9027   -0.0838 C.3       1 <0>        -0.0411
     21 C18        -1.5080   -1.2282   -1.4402 C.3       1 <0>        -0.1461
     22 C19        -2.5878   -2.2634   -1.2578 C.2       1 <0>         0.4589
     23 O1         -2.8297   -2.6965   -0.1560 O.co2     1 <0>        -0.6407
     24 C20        -0.0142    4.0267    1.3918 C.2       1 <0>         0.5595
     25 O2          1.1158    3.5763    1.4592 O.2       1 <0>        -0.5142
     26 N2         -0.4366    5.1831    1.9304 N.am      1 <0>        -0.6515
     27 H2         -4.6170    7.2271    1.8942 H         1 <0>         0.1384
     28 H3         -2.2661    7.2730    2.5972 H         1 <0>         0.1336
     29 H4         -4.0009    3.4869   -0.0615 H         1 <0>         0.1412
     30 H5         -2.0985    1.7958   -0.3400 H         1 <0>         0.1554
     31 H6          4.0792    2.0006   -0.2309 H         1 <0>         0.0734
     32 H7          3.8181    1.5198   -1.9274 H         1 <0>         0.0769
     33 H8          4.3291   -0.3084    0.4620 H         1 <0>         0.0670
     34 H9          5.3717   -0.0750   -0.9613 H         1 <0>         0.0671
     35 H10         4.1706   -2.1436   -1.3011 H         1 <0>         0.0650
     36 H11         3.4380   -0.9355   -2.3838 H         1 <0>         0.0637
     37 H12         2.3716   -1.9002    0.3080 H         1 <0>         0.0681
     38 H13         1.6163   -2.1029   -1.2938 H         1 <0>         0.0753
     39 H14        -0.4466   -1.8077    0.3426 H         1 <0>         0.0755
     40 H15        -1.6449   -0.5146    0.5879 H         1 <0>         0.0683
     41 H16        -1.9406   -0.3232   -1.8666 H         1 <0>         0.0610
     42 H17        -0.7423   -1.6163   -2.1119 H         1 <0>         0.0648
     43 H18         0.1271    5.7883    2.4373 H         1 <0>         0.4153
     44 O3         -3.2809   -2.7044   -2.3193 O.co2     1 <0>        -0.7764
@<TRIPOS>BOND
     1    1    6 ar
     2    1    2 ar
     3    1   27 1
     4    2    3 ar
     5    2   28 1
     6    3   26 1
     7    3    4 ar
     8    4    5 ar
     9    4    8 1
    10    5    6 ar
    11    5   29 1
    12    6    7 1
    13    8    9 2
    14    8   24 1
    15    9   10 1
    16    9   30 1
    17   10   14 1
    18   10   11 2
    19   11   12 1
    20   11   20 1
    21   12   19 1
    22   12   13 2
    23   13   14 1
    24   13   16 1
    25   14   15 1
    26   16   17 1
    27   16   31 1
    28   16   32 1
    29   17   18 1
    30   17   33 1
    31   17   34 1
    32   18   19 1
    33   18   35 1
    34   18   36 1
    35   19   37 1
    36   19   38 1
    37   20   21 1
    38   20   39 1
    39   20   40 1
    40   21   22 1
    41   21   41 1
    42   21   42 1
    43   22   23 2
    44   22   44 1
    45   24   25 2
    46   24   26 am
    47   26   43 1
@<TRIPOS>MOLECULE
ZINC03815538
   44    47     0     0     0
SMALL
USER_CHARGES

@<TRIPOS>ATOM
      1 C1         -4.2553   -0.6263    0.7643 C.ar      1 <0>        -0.1369
      2 C2         -5.0695    0.2979    1.3980 C.ar      1 <0>        -0.0951
      3 C3         -4.5900    1.5498    1.7254 C.ar      1 <0>        -0.1377
      4 C4         -3.2780    1.8961    1.4209 C.ar      1 <0>         0.1305
      5 C5         -2.4572    0.9581    0.7802 C.ar      1 <0>        -0.0810
      6 C6         -2.9503   -0.3015    0.4546 C.ar      1 <0>        -0.0711
      7 C7         -1.1426    1.6118    0.5953 C.2       1 <0>        -0.2350
      8 C8         -0.0126    1.0758    0.0080 C.2       1 <0>         0.1092
      9 C9          1.1121    1.8921   -0.2319 C.2       1 <0>        -0.0334
     10 C10         2.4407    1.4918   -0.1921 C.2       1 <0>        -0.0567
     11 C11         3.2103    2.6109   -0.4892 C.2       1 <0>        -0.1746
     12 C12         2.3684    3.6597   -0.7021 C.2       1 <0>         0.0647
     13 N1          1.0930    3.2335   -0.5551 N.pl3     1 <0>        -0.5064
     14 H1          0.2982    3.7799   -0.6573 H         1 <0>         0.4153
     15 C13         2.8336    5.0542   -1.0489 C.3       1 <0>        -0.0521
     16 C14         4.3236    5.1670   -0.7055 C.3       1 <0>        -0.1108
     17 C15         5.0814    3.9873   -1.3204 C.3       1 <0>        -0.1180
     18 C16         4.7139    2.6990   -0.5741 C.3       1 <0>        -0.0485
     19 C17         2.9516    0.1076    0.1146 C.3       1 <0>        -0.0400
     20 C18         3.0669   -0.6929   -1.1841 C.3       1 <0>        -0.1460
     21 C19         3.5779   -2.0771   -0.8773 C.2       1 <0>         0.4589
     22 O1          3.8244   -2.3911    0.2631 O.co2     1 <0>        -0.6408
     23 C20        -1.2971    2.9514    1.1769 C.2       1 <0>         0.5575
     24 O2         -0.4362    3.8116    1.2317 O.2       1 <0>        -0.5188
     25 N2         -2.5556    3.0635    1.6346 N.am      1 <0>        -0.6535
     26 H2         -4.6421   -1.6028    0.5128 H         1 <0>         0.1285
     27 H3         -6.0896    0.0364    1.6377 H         1 <0>         0.1275
     28 H4         -5.2347    2.2617    2.2194 H         1 <0>         0.1228
     29 H5         -2.3147   -1.0217   -0.0390 H         1 <0>         0.1311
     30 H6          0.0077    0.0328   -0.2715 H         1 <0>         0.1540
     31 H7          2.2674    5.7844   -0.4707 H         1 <0>         0.0728
     32 H8          2.6877    5.2356   -2.1138 H         1 <0>         0.0760
     33 H9          4.4486    5.1542    0.3773 H         1 <0>         0.0668
     34 H10         4.7188    6.1007   -1.1055 H         1 <0>         0.0666
     35 H11         6.1542    4.1618   -1.2377 H         1 <0>         0.0646
     36 H12         4.8093    3.8888   -2.3713 H         1 <0>         0.0634
     37 H13         5.1376    2.7228    0.4299 H         1 <0>         0.0676
     38 H14         5.1021    1.8370   -1.1167 H         1 <0>         0.0749
     39 H15         3.9318    0.1783    0.5862 H         1 <0>         0.0747
     40 H16         2.2587   -0.3940    0.7903 H         1 <0>         0.0678
     41 H17         2.0868   -0.7636   -1.6556 H         1 <0>         0.0609
     42 H18         3.7598   -0.1913   -1.8597 H         1 <0>         0.0646
     43 H19        -2.9127    3.8566    2.0641 H         1 <0>         0.4128
     44 O3          3.7590   -2.9611   -1.8710 O.co2     1 <0>        -0.7772
@<TRIPOS>BOND
     1    1    6 ar
     2    1    2 ar
     3    1   26 1
     4    2    3 ar
     5    2   27 1
     6    3    4 ar
     7    3   28 1
     8    4   25 1
     9    4    5 ar
    10    5    6 ar
    11    5    7 1
    12    6   29 1
    13    7    8 2
    14    7   23 1
    15    8    9 1
    16    8   30 1
    17    9   13 1
    18    9   10 2
    19   10   11 1
    20   10   19 1
    21   11   18 1
    22   11   12 2
    23   12   13 1
    24   12   15 1
    25   13   14 1
    26   15   16 1
    27   15   31 1
    28   15   32 1
    29   16   17 1
    30   16   33 1
    31   16   34 1
    32   17   18 1
    33   17   35 1
    34   17   36 1
    35   18   37 1
    36   18   38 1
    37   19   20 1
    38   19   39 1
    39   19   40 1
    40   20   21 1
    41   20   41 1
    42   20   42 1
    43   21   22 2
    44   21   44 1
    45   23   24 2
    46   23   25 am
    47   25   43 1
@<TRIPOS>MOLECULE
ZINC03815545
   60    63     0     0     0
SMALL
USER_CHARGES

@<TRIPOS>ATOM
      1 C1          2.5650   -3.0211   -1.9633 C.3       1 <0>        -0.1885
      2 C2          1.1279   -3.4878   -2.2038 C.3       1 <0>        -0.0066
      3 C3         -1.0941   -2.6109   -2.5995 C.3       1 <0>        -0.0080
      4 C4         -0.9453   -2.4469   -4.1134 C.3       1 <0>        -0.1896
      5 C5          0.0372   -2.1444   -0.5102 C.3       1 <0>         0.1673
      6 O1          1.1371   -1.3742   -0.0213 O.3       1 <0>        -0.2869
      7 C6          1.0934   -0.0318   -0.2333 C.ar      1 <0>         0.0600
      8 C7          2.1287    0.7750    0.2154 C.ar      1 <0>        -0.0997
      9 C8          2.0851    2.1384    0.0005 C.ar      1 <0>        -0.0665
     10 C9          1.0043    2.7018   -0.6650 C.ar      1 <0>         0.1604
     11 C10        -0.0318    1.8934   -1.1139 C.ar      1 <0>        -0.1029
     12 C11         0.0132    0.5303   -0.8978 C.ar      1 <0>        -0.1967
     13 N1          0.9590    4.0842   -0.8829 N.pl3     1 <0>        -0.6315
     14 C12         2.1271    4.7868   -1.1057 C.ar      1 <0>         0.5992
     15 N2          3.2682    4.1142   -1.2122 N.ar      1 <0>        -0.5761
     16 C13         4.4114    4.7379   -1.4250 C.ar      1 <0>         0.2583
     17 C14         4.4024    6.1367   -1.5382 C.ar      1 <0>        -0.2617
     18 C15         5.5948    6.8604   -1.7667 C.2       1 <0>         0.0001
     19 C16         5.5340    8.2244   -1.8701 C.2       1 <0>        -0.1354
     20 C17         4.2401    8.8980   -1.7420 C.2       1 <0>         0.5460
     21 O2          4.1769   10.1111   -1.8326 O.2       1 <0>        -0.4945
     22 N3          3.1196    8.1830   -1.5240 N.am      1 <0>        -0.5068
     23 C18         3.1709    6.8160   -1.4194 C.ar      1 <0>         0.4612
     24 N4          2.0680    6.1054   -1.2107 N.ar      1 <0>        -0.5876
     25 C19         1.8330    8.8721   -1.3977 C.3       1 <0>         0.0682
     26 C20         6.7661    9.0116   -2.1099 C.ar      1 <0>        -0.0402
     27 C21         7.2245    9.9062   -1.1433 C.ar      1 <0>        -0.0877
     28 C22         8.3758   10.6322   -1.3700 C.ar      1 <0>        -0.1180
     29 C23         9.0684   10.4829   -2.5582 C.ar      1 <0>        -0.1097
     30 C24         8.6157    9.6009   -3.5231 C.ar      1 <0>        -0.1198
     31 C25         7.4689    8.8650   -3.3055 C.ar      1 <0>        -0.1012
     32 H1          3.2571   -3.8111   -2.2549 H         1 <0>         0.1033
     33 H2          2.7614   -2.1285   -2.5572 H         1 <0>         0.0753
     34 H3          2.7003   -2.7914   -0.9064 H         1 <0>         0.0904
     35 H4          0.8961   -4.3126   -1.5301 H         1 <0>         0.1330
     36 H5          1.0221   -3.8212   -3.2362 H         1 <0>         0.1290
     37 H6         -1.4335   -3.6222   -2.3752 H         1 <0>         0.1372
     38 H7         -1.8231   -1.8918   -2.2260 H         1 <0>         0.1279
     39 H8         -1.9018   -2.6469   -4.5963 H         1 <0>         0.1093
     40 H9         -0.6303   -1.4281   -4.3392 H         1 <0>         0.0805
     41 H10        -0.1978   -3.1487   -4.4832 H         1 <0>         0.0821
     42 H11         0.0047   -3.1021    0.0094 H         1 <0>         0.1740
     43 H12        -0.8924   -1.6034   -0.3332 H         1 <0>         0.1326
     44 H13         2.9690    0.3368    0.7333 H         1 <0>         0.1446
     45 H14         2.8891    2.7669    0.3539 H         1 <0>         0.1535
     46 H15        -0.8729    2.3308   -1.6312 H         1 <0>         0.1385
     47 H16        -0.7927   -0.0985   -1.2465 H         1 <0>         0.1226
     48 H17         0.1073    4.5484   -0.8774 H         1 <0>         0.4300
     49 H18         5.3343    4.1836   -1.5107 H         1 <0>         0.1900
     50 H19         6.5397    6.3453   -1.8579 H         1 <0>         0.1536
     51 H20         1.9836    9.9461   -1.5073 H         1 <0>         0.1028
     52 H21         1.1541    8.5193   -2.1741 H         1 <0>         0.0804
     53 H22         1.4038    8.6636   -0.4177 H         1 <0>         0.0809
     54 H23         6.6820   10.0271   -0.2173 H         1 <0>         0.1207
     55 H24         8.7343   11.3221   -0.6203 H         1 <0>         0.1266
     56 H25         9.9664   11.0569   -2.7331 H         1 <0>         0.1255
     57 H26         9.1608    9.4882   -4.4486 H         1 <0>         0.1266
     58 H27         7.1164    8.1768   -4.0594 H         1 <0>         0.1228
     59 N5          0.2143   -2.3510   -1.9630 N.4       1 <0>        -0.4258
     60 H28         0.6222   -1.5027   -2.3732 H         1 <0>         0.4270
@<TRIPOS>BOND
     1    1    2 1
     2    1   32 1
     3    1   33 1
     4    1   34 1
     5    2   35 1
     6    2   36 1
     7    2   59 1
     8    3    4 1
     9    3   37 1
    10    3   38 1
    11    3   59 1
    12    4   39 1
    13    4   40 1
    14    4   41 1
    15    5    6 1
    16    5   42 1
    17    5   43 1
    18    5   59 1
    19    6    7 1
    20    7   12 ar
    21    7    8 ar
    22    8    9 ar
    23    8   44 1
    24    9   10 ar
    25    9   45 1
    26   10   11 ar
    27   10   13 1
    28   11   12 ar
    29   11   46 1
    30   12   47 1
    31   13   14 1
    32   13   48 1
    33   14   24 ar
    34   14   15 ar
    35   15   16 ar
    36   16   17 ar
    37   16   49 1
    38   17   23 ar
    39   17   18 1
    40   18   19 2
    41   18   50 1
    42   19   20 1
    43   19   26 1
    44   20   21 2
    45   20   22 am
    46   22   23 1
    47   22   25 1
    48   23   24 ar
    49   25   51 1
    50   25   52 1
    51   25   53 1
    52   26   31 ar
    53   26   27 ar
    54   27   28 ar
    55   27   54 1
    56   28   29 ar
    57   28   55 1
    58   29   30 ar
    59   29   56 1
    60   30   31 ar
    61   30   57 1
    62   31   58 1
    63   59   60 1
@<TRIPOS>MOLECULE
ZINC03815546
   51    54     0     0     0
SMALL
USER_CHARGES

@<TRIPOS>ATOM
      1 C1          1.8388   13.1770    1.0881 C.3       1 <0>        -0.0909
      2 C2          0.4961   13.0829    0.4103 C.2       1 <0>        -0.0829
      3 C3         -0.3609   14.1447    0.1155 C.2       1 <0>        -0.1597
      4 C4         -1.4622   13.6371   -0.4924 C.2       1 <0>         0.0418
      5 N1         -1.3273   12.2910   -0.5971 N.pl3     1 <0>        -0.5145
      6 H1         -1.9726   11.6869   -0.9964 H         1 <0>         0.4170
      7 C5         -0.1218   11.9252   -0.0376 C.2       1 <0>        -0.0355
      8 C6          0.3914   10.6153    0.0564 C.2       1 <0>         0.1057
      9 C7         -0.4673    9.5485    0.2445 C.2       1 <0>        -0.2312
     10 C8         -0.1322    8.1081    0.2142 C.ar      1 <0>        -0.0762
     11 C9          1.0555    7.4113    0.0049 C.ar      1 <0>        -0.0703
     12 C10         1.0581    6.0346    0.0368 C.ar      1 <0>        -0.1225
     13 C11        -0.1288    5.3401    0.2787 C.ar      1 <0>        -0.0247
     14 C12        -1.3192    6.0312    0.4829 C.ar      1 <0>        -0.1224
     15 C13        -1.3295    7.4190    0.4580 C.ar      1 <0>         0.1375
     16 N2         -2.3572    8.3385    0.6322 N.am      1 <0>        -0.6537
     17 C14        -1.9095    9.6003    0.5177 C.2       1 <0>         0.5562
     18 O1         -2.5821   10.6105    0.6226 O.2       1 <0>        -0.5109
     19 C15        -0.1219    3.8574    0.3123 C.ar      1 <0>        -0.0005
     20 C16        -1.3039    3.1579    0.5529 C.ar      1 <0>        -0.1481
     21 C17        -1.2958    1.7780    0.5779 C.ar      1 <0>        -0.0772
     22 C18        -0.1160    1.0860    0.3758 C.ar      1 <0>        -0.2092
     23 C19         1.0649    1.7746    0.1352 C.ar      1 <0>         0.1296
     24 C20         1.0652    3.1595    0.1030 C.ar      1 <0>        -0.1420
     25 O2          2.2211    1.0900   -0.0685 O.3       1 <0>        -0.3171
     26 C21         2.1476   -0.3363   -0.0209 C.3       1 <0>         0.0272
     27 C22        -0.1075   15.5988    0.4196 C.3       1 <0>        -0.0303
     28 C23         0.7237   16.2178   -0.7059 C.3       1 <0>        -0.1472
     29 C24         0.9772   17.6719   -0.4018 C.2       1 <0>         0.4577
     30 O3          0.5380   18.1627    0.6111 O.co2     1 <0>        -0.6426
     31 H2          2.6166   13.3118    0.3365 H         1 <0>         0.0710
     32 H3          1.8423   14.0266    1.7710 H         1 <0>         0.0734
     33 H4          2.0286   12.2607    1.6471 H         1 <0>         0.0582
     34 H5         -2.3074   14.2119   -0.8410 H         1 <0>         0.1677
     35 H6          1.4553   10.4455   -0.0185 H         1 <0>         0.1507
     36 H7          1.9728    7.9497   -0.1825 H         1 <0>         0.1325
     37 H8          1.9778    5.4922   -0.1256 H         1 <0>         0.1330
     38 H9         -2.2345    5.4877    0.6651 H         1 <0>         0.1291
     39 H10        -3.2797    8.0998    0.8135 H         1 <0>         0.4147
     40 H11        -2.2261    3.6957    0.7159 H         1 <0>         0.1272
     41 H12        -2.2127    1.2374    0.7604 H         1 <0>         0.1268
     42 H13        -0.1141    0.0063    0.4009 H         1 <0>         0.1278
     43 H14         1.9833    3.6966   -0.0841 H         1 <0>         0.1365
     44 H15         1.7909   -0.6492    0.9604 H         1 <0>         0.0556
     45 H16         1.4586   -0.6903   -0.7878 H         1 <0>         0.0555
     46 H17         3.1371   -0.7573   -0.1991 H         1 <0>         0.1007
     47 H18        -1.0590   16.1244    0.4998 H         1 <0>         0.0652
     48 H19         0.4351   15.6839    1.3611 H         1 <0>         0.0682
     49 H20         1.6753   15.6922   -0.7862 H         1 <0>         0.0622
     50 H21         0.1811   16.1327   -1.6474 H         1 <0>         0.0603
     51 O4          1.6908   18.4218   -1.2563 O.co2     1 <0>        -0.7797
@<TRIPOS>BOND
     1    1    2 1
     2    1   31 1
     3    1   32 1
     4    1   33 1
     5    2    7 2
     6    2    3 1
     7    3    4 2
     8    3   27 1
     9    4    5 1
    10    4   34 1
    11    5    6 1
    12    5    7 1
    13    7    8 1
    14    8    9 2
    15    8   35 1
    16    9   17 1
    17    9   10 1
    18   10   15 ar
    19   10   11 ar
    20   11   12 ar
    21   11   36 1
    22   12   13 ar
    23   12   37 1
    24   13   14 ar
    25   13   19 1
    26   14   15 ar
    27   14   38 1
    28   15   16 1
    29   16   17 am
    30   16   39 1
    31   17   18 2
    32   19   24 ar
    33   19   20 ar
    34   20   21 ar
    35   20   40 1
    36   21   22 ar
    37   21   41 1
    38   22   23 ar
    39   22   42 1
    40   23   24 ar
    41   23   25 1
    42   24   43 1
    43   25   26 1
    44   26   44 1
    45   26   45 1
    46   26   46 1
    47   27   28 1
    48   27   47 1
    49   27   48 1
    50   28   29 1
    51   28   49 1
    52   28   50 1
    53   29   30 2
    54   29   51 1
@<TRIPOS>MOLECULE
ZINC03815551
   64    67     0     0     0
SMALL
USER_CHARGES

@<TRIPOS>ATOM
      1 C1         10.5426    6.7002   -2.7490 C.3       1 <0>        -0.1868
      2 C2         11.3397    5.9980   -1.6479 C.3       1 <0>        -0.0152
      3 C3         10.6726    7.7016   -0.0618 C.3       1 <0>        -0.0123
      4 C4         12.0877    8.2022    0.2344 C.3       1 <0>        -0.1883
      5 C5          9.3671    5.6743   -0.2817 C.3       1 <0>        -0.0074
      6 C6          9.4728    4.1488   -0.3335 C.3       1 <0>        -0.1506
      7 C7          8.0716    3.5379   -0.2667 C.3       1 <0>         0.0625
      8 O1          8.1704    2.1132   -0.3151 O.3       1 <0>        -0.3118
      9 C8          7.0065    1.4116   -0.2654 C.ar      1 <0>         0.1079
     10 C9          7.0304    0.0253   -0.3081 C.ar      1 <0>        -0.1177
     11 C10         5.8490   -0.6879   -0.2582 C.ar      1 <0>        -0.0975
     12 C11         4.6367   -0.0168   -0.1651 C.ar      1 <0>         0.1338
     13 C12         4.6133    1.3713   -0.1281 C.ar      1 <0>        -0.1066
     14 C13         5.7961    2.0827   -0.1724 C.ar      1 <0>        -0.1823
     15 N1          3.4386   -0.7390   -0.1143 N.pl3     1 <0>        -0.6554
     16 C14         2.4392   -0.3635    0.7720 C.ar      1 <0>         0.4378
     17 C15         2.7008    0.6207    1.7156 C.ar      1 <0>        -0.2923
     18 C16         1.6927    0.9894    2.5979 C.ar      1 <0>         0.2696
     19 C17         0.4413    0.3425    2.4940 C.ar      1 <0>        -0.2274
     20 C18        -0.6074    0.6874    3.3791 C.2       1 <0>         0.0259
     21 C19        -0.3927    1.6579    4.3196 C.2       1 <0>        -0.1621
     22 C20         0.9170    2.3087    4.4007 C.2       1 <0>         0.5548
     23 O2          1.1158    3.1694    5.2395 O.2       1 <0>        -0.5118
     24 N2          1.9026    1.9595    3.5509 N.am      1 <0>        -0.6310
     25 H1          2.7937    2.4089    3.6133 H         1 <0>         0.4227
     26 C21        -1.4756    2.0426    5.2545 C.ar      1 <0>        -0.0133
     27 C22        -2.3558    3.0729    4.9214 C.ar      1 <0>        -0.0067
     28 C23        -3.3668    3.4228    5.7949 C.ar      1 <0>        -0.1063
     29 C24        -3.5011    2.7618    7.0026 C.ar      1 <0>        -0.0863
     30 C25        -2.6281    1.7438    7.3416 C.ar      1 <0>        -0.1058
     31 C26        -1.6163    1.3802    6.4746 C.ar      1 <0>        -0.0072
     32 Cl1        -0.5218    0.1023    6.9020 Cl        1 <0>        -0.0503
     33 Cl2        -2.1849    3.9082    3.4091 Cl        1 <0>        -0.0524
     34 C27         0.2635   -0.6399    1.5123 C.ar      1 <0>         0.2337
     35 N3          1.2503   -0.9526    0.7009 N.ar      1 <0>        -0.5473
     36 H2          9.4977    6.3954   -2.6918 H         1 <0>         0.0788
     37 H3         10.6139    7.7798   -2.6171 H         1 <0>         0.0817
     38 H4         10.9484    6.4256   -3.7227 H         1 <0>         0.1068
     39 H5         12.3619    6.3765   -1.6417 H         1 <0>         0.1309
     40 H6         11.3509    4.9244   -1.8357 H         1 <0>         0.1301
     41 H7         10.2733    8.2315   -0.9266 H         1 <0>         0.1338
     42 H8         10.0343    7.8840    0.8027 H         1 <0>         0.1291
     43 H9         12.0469    9.2484    0.5377 H         1 <0>         0.1067
     44 H10        12.5227    7.6078    1.0379 H         1 <0>         0.0800
     45 H11        12.7017    8.1072   -0.6612 H         1 <0>         0.0803
     46 H12         8.7764    6.0265   -1.1274 H         1 <0>         0.1361
     47 H13         8.8842    5.9736    0.6485 H         1 <0>         0.1334
     48 H14        10.0634    3.7966    0.5122 H         1 <0>         0.0992
     49 H15         9.9557    3.8495   -1.2637 H         1 <0>         0.0990
     50 H16         7.4810    3.8901   -1.1124 H         1 <0>         0.0723
     51 H17         7.5887    3.8373    0.6635 H         1 <0>         0.0727
     52 H18         7.9733   -0.4964   -0.3809 H         1 <0>         0.1396
     53 H19         5.8678   -1.7672   -0.2911 H         1 <0>         0.1409
     54 H20         3.6707    1.8940   -0.0603 H         1 <0>         0.1355
     55 H21         5.7784    3.1620   -0.1392 H         1 <0>         0.1307
     56 H22         3.3070   -1.5019   -0.6988 H         1 <0>         0.4216
     57 H23         3.6713    1.0921    1.7627 H         1 <0>         0.1472
     58 H24        -1.5661    0.1951    3.3098 H         1 <0>         0.1484
     59 H25        -4.0515    4.2170    5.5363 H         1 <0>         0.1441
     60 H26        -4.2908    3.0420    7.6840 H         1 <0>         0.1464
     61 H27        -2.7381    1.2319    8.2862 H         1 <0>         0.1445
     62 H28        -0.6879   -1.1427    1.4208 H         1 <0>         0.1786
     63 N4         10.7284    6.2483   -0.3256 N.4       1 <0>        -0.3945
     64 H29        11.3029    5.7999    0.3977 H         1 <0>         0.4296
@<TRIPOS>BOND
     1    1    2 1
     2    1   36 1
     3    1   37 1
     4    1   38 1
     5    2   39 1
     6    2   40 1
     7    2   63 1
     8    3    4 1
     9    3   41 1
    10    3   42 1
    11    3   63 1
    12    4   43 1
    13    4   44 1
    14    4   45 1
    15    5    6 1
    16    5   46 1
    17    5   47 1
    18    5   63 1
    19    6    7 1
    20    6   48 1
    21    6   49 1
    22    7    8 1
    23    7   50 1
    24    7   51 1
    25    8    9 1
    26    9   14 ar
    27    9   10 ar
    28   10   11 ar
    29   10   52 1
    30   11   12 ar
    31   11   53 1
    32   12   13 ar
    33   12   15 1
    34   13   14 ar
    35   13   54 1
    36   14   55 1
    37   15   16 1
    38   15   56 1
    39   16   35 ar
    40   16   17 ar
    41   17   18 ar
    42   17   57 1
    43   18   24 1
    44   18   19 ar
    45   19   20 1
    46   19   34 ar
    47   20   21 2
    48   20   58 1
    49   21   22 1
    50   21   26 1
    51   22   23 2
    52   22   24 am
    53   24   25 1
    54   26   31 ar
    55   26   27 ar
    56   27   28 ar
    57   27   33 1
    58   28   29 ar
    59   28   59 1
    60   29   30 ar
    61   29   60 1
    62   30   31 ar
    63   30   61 1
    64   31   32 1
    65   34   35 ar
    66   34   62 1
    67   63   64 1
@<TRIPOS>MOLECULE
ZINC03815556
   44    47     0     0     0
SMALL
USER_CHARGES

@<TRIPOS>ATOM
      1 C1         -1.0612    5.4742    7.0888 C.3       1 <0>         0.0695
      2 N1         -2.4560    5.0620    7.2641 N.am      1 <0>        -0.5057
      3 C2         -3.0219    4.1848    6.3737 C.ar      1 <0>         0.4688
      4 C3         -4.3648    3.7774    6.5283 C.ar      1 <0>        -0.2761
      5 C4         -5.1384    4.2707    7.6036 C.2       1 <0>         0.0309
      6 C5         -4.5651    5.1453    8.4873 C.2       1 <0>        -0.1636
      7 C6         -3.1697    5.5475    8.2981 C.2       1 <0>         0.5571
      8 O1         -2.6518    6.3249    9.0799 O.2       1 <0>        -0.5007
      9 C7         -5.3495    5.6803    9.6247 C.ar      1 <0>        -0.0103
     10 C8         -6.0758    6.8630    9.4802 C.ar      1 <0>        -0.0062
     11 C9         -6.8088    7.3538   10.5430 C.ar      1 <0>        -0.1064
     12 C10        -6.8159    6.6809   11.7516 C.ar      1 <0>        -0.0873
     13 C11        -6.0939    5.5108   11.9030 C.ar      1 <0>        -0.1064
     14 C12        -5.3606    5.0067   10.8467 C.ar      1 <0>        -0.0064
     15 Cl1        -4.4542    3.5387   11.0391 Cl        1 <0>        -0.0503
     16 Cl2        -6.0629    7.7124    7.9663 Cl        1 <0>        -0.0498
     17 C13        -4.9055    2.8799    5.5953 C.ar      1 <0>         0.2678
     18 N2         -4.1386    2.4569    4.6078 N.ar      1 <0>        -0.5753
     19 C14        -2.8769    2.8578    4.4967 C.ar      1 <0>         0.6090
     20 N3         -2.3228    3.7034    5.3522 N.ar      1 <0>        -0.5936
     21 N4         -2.1168    2.3794    3.4473 N.pl3     1 <0>        -0.6094
     22 C15        -2.7097    1.5834    2.4589 C.ar      1 <0>         0.0775
     23 C16        -4.0688    1.6746    2.2034 C.ar      1 <0>         0.1319
     24 N5         -4.6315    0.9267    1.2733 N.ar      1 <0>        -0.4849
     25 C17        -3.9351    0.0687    0.5525 C.ar      1 <0>         0.1188
     26 C18        -2.5750   -0.0779    0.7408 C.ar      1 <0>        -0.2407
     27 C19        -1.9395    0.6848    1.7145 C.ar      1 <0>         0.1399
     28 O2         -0.6043    0.5640    1.9328 O.3       1 <0>        -0.3144
     29 C20         0.1025   -0.3793    1.1250 C.3       1 <0>         0.0266
     30 H1         -1.0218    6.3656    6.4627 H         1 <0>         0.0750
     31 H2         -0.6222    5.6941    8.0620 H         1 <0>         0.0924
     32 H3         -0.5018    4.6698    6.6112 H         1 <0>         0.0952
     33 H4         -6.1660    3.9619    7.7265 H         1 <0>         0.1516
     34 H5         -7.3744    8.2670   10.4314 H         1 <0>         0.1438
     35 H6         -7.3875    7.0711   12.5807 H         1 <0>         0.1453
     36 H7         -6.1033    4.9905   12.8493 H         1 <0>         0.1437
     37 H8         -5.9290    2.5459    5.6806 H         1 <0>         0.1911
     38 H9         -1.1725    2.5948    3.3947 H         1 <0>         0.4314
     39 H10        -4.6740    2.3651    2.7720 H         1 <0>         0.1869
     40 H11        -4.4353   -0.5240   -0.1991 H         1 <0>         0.1615
     41 H12        -2.0127   -0.7794    0.1423 H         1 <0>         0.1446
     42 H13        -0.3114   -1.3752    1.2831 H         1 <0>         0.0608
     43 H14         1.1570   -0.3760    1.4010 H         1 <0>         0.1059
     44 H15         0.0010   -0.1063    0.0746 H         1 <0>         0.0609
@<TRIPOS>BOND
     1    1    2 1
     2    1   30 1
     3    1   31 1
     4    1   32 1
     5    2    7 am
     6    2    3 1
     7    3   20 ar
     8    3    4 ar
     9    4    5 1
    10    4   17 ar
    11    5    6 2
    12    5   33 1
    13    6    7 1
    14    6    9 1
    15    7    8 2
    16    9   14 ar
    17    9   10 ar
    18   10   11 ar
    19   10   16 1
    20   11   12 ar
    21   11   34 1
    22   12   13 ar
    23   12   35 1
    24   13   14 ar
    25   13   36 1
    26   14   15 1
    27   17   18 ar
    28   17   37 1
    29   18   19 ar
    30   19   20 ar
    31   19   21 1
    32   21   22 1
    33   21   38 1
    34   22   27 ar
    35   22   23 ar
    36   23   24 ar
    37   23   39 1
    38   24   25 ar
    39   25   26 ar
    40   25   40 1
    41   26   27 ar
    42   26   41 1
    43   27   28 1
    44   28   29 1
    45   29   42 1
    46   29   43 1
    47   29   44 1
@<TRIPOS>MOLECULE
ZINC03815556
   45    48     0     0     0
SMALL
USER_CHARGES

@<TRIPOS>ATOM
      1 C1         -1.0612    5.4742    7.0888 C.3       1 <0>         0.0652
      2 N1         -2.4560    5.0620    7.2641 N.am      1 <0>        -0.5031
      3 C2         -3.0219    4.1848    6.3737 C.ar      1 <0>         0.4694
      4 C3         -4.3648    3.7774    6.5283 C.ar      1 <0>        -0.2471
      5 C4         -5.1384    4.2707    7.6036 C.2       1 <0>         0.0071
      6 C5         -4.5651    5.1453    8.4873 C.2       1 <0>        -0.1291
      7 C6         -3.1697    5.5475    8.2981 C.2       1 <0>         0.5508
      8 O1         -2.6518    6.3249    9.0799 O.2       1 <0>        -0.4800
      9 C7         -5.3495    5.6803    9.6247 C.ar      1 <0>        -0.0260
     10 C8         -6.0758    6.8630    9.4802 C.ar      1 <0>        -0.0045
     11 C9         -6.8088    7.3538   10.5430 C.ar      1 <0>        -0.1040
     12 C10        -6.8159    6.6809   11.7516 C.ar      1 <0>        -0.0805
     13 C11        -6.0939    5.5108   11.9030 C.ar      1 <0>        -0.1038
     14 C12        -5.3606    5.0067   10.8467 C.ar      1 <0>        -0.0047
     15 Cl1        -4.4542    3.5387   11.0391 Cl        1 <0>        -0.0498
     16 Cl2        -6.0629    7.7124    7.9663 Cl        1 <0>        -0.0505
     17 C13        -4.9055    2.8799    5.5953 C.ar      1 <0>         0.2641
     18 N2         -4.1386    2.4569    4.6078 N.ar      1 <0>        -0.5993
     19 C14        -2.8769    2.8578    4.4967 C.ar      1 <0>         0.5939
     20 N3         -2.3228    3.7034    5.3522 N.ar      1 <0>        -0.5740
     21 N4         -2.1168    2.3794    3.4473 N.pl3     1 <0>        -0.6096
     22 C15        -2.7097    1.5834    2.4589 C.ar      1 <0>         0.1428
     23 C16        -4.0688    1.6746    2.2034 C.ar      1 <0>         0.1371
     24 C17        -3.9351    0.0687    0.5525 C.ar      1 <0>         0.1599
     25 C18        -2.5750   -0.0779    0.7408 C.ar      1 <0>        -0.2032
     26 C19        -1.9395    0.6848    1.7145 C.ar      1 <0>         0.2265
     27 O2         -0.6043    0.5640    1.9328 O.3       1 <0>        -0.2810
     28 C20         0.1025   -0.3793    1.1250 C.3       1 <0>         0.0097
     29 H1         -1.0218    6.3656    6.4627 H         1 <0>         0.0800
     30 H2         -0.6222    5.6941    8.0620 H         1 <0>         0.0980
     31 H3         -0.5018    4.6698    6.6112 H         1 <0>         0.0968
     32 H4         -6.1660    3.9619    7.7265 H         1 <0>         0.1575
     33 H5         -7.3744    8.2670   10.4314 H         1 <0>         0.1469
     34 H6         -7.3875    7.0711   12.5807 H         1 <0>         0.1491
     35 H7         -6.1033    4.9905   12.8493 H         1 <0>         0.1470
     36 H8         -5.9290    2.5459    5.6806 H         1 <0>         0.1972
     37 H9         -1.1725    2.5948    3.3947 H         1 <0>         0.4468
     38 H10        -4.6740    2.3651    2.7720 H         1 <0>         0.2204
     39 H11        -4.4353   -0.5240   -0.1991 H         1 <0>         0.2023
     40 H12        -2.0127   -0.7794    0.1423 H         1 <0>         0.1935
     41 H13        -0.3114   -1.3752    1.2831 H         1 <0>         0.0791
     42 H14         1.1570   -0.3760    1.4010 H         1 <0>         0.1282
     43 H15         0.0010   -0.1063    0.0746 H         1 <0>         0.0794
     44 N5         -4.7109    0.9336    1.2601 N.ar      1 <0>        -0.4800
     45 H16        -5.7200    1.0220    1.0924 H         1 <0>         0.4818
@<TRIPOS>BOND
     1    1    2 1
     2    1   29 1
     3    1   30 1
     4    1   31 1
     5    2    7 am
     6    2    3 1
     7    3   20 ar
     8    3    4 ar
     9    4    5 1
    10    4   17 ar
    11    5    6 2
    12    5   32 1
    13    6    7 1
    14    6    9 1
    15    7    8 2
    16    9   14 ar
    17    9   10 ar
    18   10   11 ar
    19   10   16 1
    20   11   12 ar
    21   11   33 1
    22   12   13 ar
    23   12   34 1
    24   13   14 ar
    25   13   35 1
    26   14   15 1
    27   17   18 ar
    28   17   36 1
    29   18   19 ar
    30   19   20 ar
    31   19   21 1
    32   21   22 1
    33   21   37 1
    34   22   26 ar
    35   22   23 ar
    36   23   38 1
    37   23   44 ar
    38   24   25 ar
    39   24   39 1
    40   24   44 ar
    41   25   26 ar
    42   25   40 1
    43   26   27 1
    44   27   28 1
    45   28   41 1
    46   28   42 1
    47   28   43 1
    48   44   45 1
@<TRIPOS>MOLECULE
ZINC03815557
   34    36     0     0     0
SMALL
USER_CHARGES

@<TRIPOS>ATOM
      1 C1         -1.7150   -0.9970   -1.4288 C.3       1 <0>        -0.1624
      2 C2         -1.2609   -0.7464    0.0106 C.3       1 <0>         0.0978
      3 N1          0.0021   -0.0041    0.0020 N.am      1 <0>        -0.5036
      4 C3          1.1914   -0.6878   -0.0130 C.ar      1 <0>         0.4704
      5 C4          2.4173    0.0122   -0.0210 C.ar      1 <0>        -0.2868
      6 C5          2.4293    1.4259   -0.0135 C.2       1 <0>         0.0337
      7 C6          1.2376    2.0995    0.0015 C.2       1 <0>        -0.1699
      8 C7         -0.0162    1.3427    0.0094 C.2       1 <0>         0.5584
      9 O1         -1.0810    1.9342    0.0177 O.2       1 <0>        -0.5032
     10 C8          1.2165    3.5810    0.0102 C.ar      1 <0>        -0.0080
     11 C9          1.2124    4.2746    1.2210 C.ar      1 <0>        -0.0069
     12 C10         1.1975    5.6557    1.2220 C.ar      1 <0>        -0.1067
     13 C11         1.1760    6.3511    0.0264 C.ar      1 <0>        -0.0883
     14 C12         1.1746    5.6694   -1.1773 C.ar      1 <0>        -0.1067
     15 C13         1.1947    4.2885   -1.1923 C.ar      1 <0>        -0.0068
     16 Cl1         1.1923    3.4349   -2.7040 Cl        1 <0>        -0.0506
     17 Cl2         1.2326    3.4037    2.7226 Cl        1 <0>        -0.0506
     18 C14         3.6108   -0.7247   -0.0368 C.ar      1 <0>         0.2695
     19 N2          3.5395   -2.0428   -0.0436 N.ar      1 <0>        -0.5837
     20 C15         2.3674   -2.6681   -0.0358 C.ar      1 <0>         0.6146
     21 N3          1.2151   -2.0159   -0.0209 N.ar      1 <0>        -0.6036
     22 N4          2.3502   -4.0486   -0.0440 N.pl3     1 <0>        -0.8060
     23 H1         -1.8577   -0.0429   -1.9361 H         1 <0>         0.0604
     24 H2         -0.9560   -1.5774   -1.9533 H         1 <0>         0.0595
     25 H3         -2.6547   -1.5493   -1.4224 H         1 <0>         0.0764
     26 H4         -1.1181   -1.7005    0.5179 H         1 <0>         0.1006
     27 H5         -2.0199   -0.1660    0.5352 H         1 <0>         0.0970
     28 H6          3.3644    1.9662   -0.0193 H         1 <0>         0.1488
     29 H7          1.1985    6.1939    2.1584 H         1 <0>         0.1434
     30 H8          1.1599    7.4309    0.0327 H         1 <0>         0.1450
     31 H9          1.1581    6.2182   -2.1073 H         1 <0>         0.1433
     32 H10         4.5679   -0.2243   -0.0436 H         1 <0>         0.1857
     33 H11         1.5041   -4.5231   -0.0389 H         1 <0>         0.4185
     34 H12         3.1840   -4.5440   -0.0550 H         1 <0>         0.4206
@<TRIPOS>BOND
     1    1    2 1
     2    1   23 1
     3    1   24 1
     4    1   25 1
     5    2    3 1
     6    2   26 1
     7    2   27 1
     8    3    8 am
     9    3    4 1
    10    4   21 ar
    11    4    5 ar
    12    5    6 1
    13    5   18 ar
    14    6    7 2
    15    6   28 1
    16    7    8 1
    17    7   10 1
    18    8    9 2
    19   10   15 ar
    20   10   11 ar
    21   11   12 ar
    22   11   17 1
    23   12   13 ar
    24   12   29 1
    25   13   14 ar
    26   13   30 1
    27   14   15 ar
    28   14   31 1
    29   15   16 1
    30   18   19 ar
    31   18   32 1
    32   19   20 ar
    33   20   21 ar
    34   20   22 1
    35   22   33 1
    36   22   34 1
@<TRIPOS>MOLECULE
ZINC03815559
   48    50     0     0     0
SMALL
USER_CHARGES

@<TRIPOS>ATOM
      1 C1         -2.2664    2.6406    5.7207 C.3       1 <0>         0.0715
      2 N1         -1.0652    1.8152    5.8687 N.am      1 <0>        -0.5071
      3 C2         -0.4094    1.3640    4.7512 C.ar      1 <0>         0.4699
      4 C3          0.7497    0.5679    4.8763 C.ar      1 <0>        -0.2948
      5 C4          1.2453    0.2291    6.1562 C.2       1 <0>         0.0420
      6 C5          0.5843    0.6839    7.2655 C.2       1 <0>        -0.1816
      7 C6         -0.6156    1.5073    7.1005 C.2       1 <0>         0.5597
      8 O1         -1.2098    1.9161    8.0821 O.2       1 <0>        -0.5106
      9 C7          1.0781    0.3458    8.6209 C.ar      1 <0>        -0.0023
     10 C8          0.6245   -0.8061    9.2648 C.ar      1 <0>        -0.0074
     11 C9          1.0925   -1.1181   10.5262 C.ar      1 <0>        -0.1077
     12 C10         2.0012   -0.2863   11.1554 C.ar      1 <0>        -0.0909
     13 C11         2.4509    0.8598   10.5247 C.ar      1 <0>        -0.1077
     14 C12         1.9945    1.1808    9.2613 C.ar      1 <0>        -0.0075
     15 Cl1         2.5591    2.6202    8.4720 Cl        1 <0>        -0.0500
     16 Cl2        -0.5209   -1.8478    8.4796 Cl        1 <0>        -0.0500
     17 C13         1.3899    0.1267    3.7087 C.ar      1 <0>         0.2701
     18 N2          0.8797    0.4693    2.5405 N.ar      1 <0>        -0.5765
     19 C14        -0.2103    1.2245    2.4609 C.ar      1 <0>         0.6146
     20 N3         -0.8488    1.6644    3.5342 N.ar      1 <0>        -0.6076
     21 N4         -0.6984    1.5583    1.2133 N.pl3     1 <0>        -0.6788
     22 C15        -0.0127    1.0858    0.0080 C.3       1 <0>         0.1310
     23 C16        -0.7527    1.5927   -1.2315 C.3       1 <0>        -0.1333
     24 C17        -0.0366    1.0992   -2.4903 C.3       1 <0>        -0.1144
     25 C18        -0.7766    1.6061   -3.7298 C.3       1 <0>        -0.0982
     26 C19        -0.0604    1.1126   -4.9886 C.3       1 <0>        -0.1584
     27 C20        -0.7893    1.6119   -6.2095 C.2       1 <0>         0.4566
     28 O2         -1.7799    2.2925   -6.0856 O.co2     1 <0>        -0.6428
     29 H1         -3.1464    1.9984    5.6843 H         1 <0>         0.0726
     30 H2         -2.3472    3.3201    6.5692 H         1 <0>         0.0896
     31 H3         -2.1993    3.2176    4.7983 H         1 <0>         0.0951
     32 H4          2.1320   -0.3790    6.2574 H         1 <0>         0.1469
     33 H5          0.7451   -2.0112   11.0242 H         1 <0>         0.1421
     34 H6          2.3610   -0.5326   12.1435 H         1 <0>         0.1435
     35 H7          3.1601    1.5053   11.0215 H         1 <0>         0.1421
     36 H8          2.2790   -0.4839    3.7644 H         1 <0>         0.1841
     37 H9         -1.4954    2.1056    1.1349 H         1 <0>         0.4178
     38 H10         0.0021   -0.0041    0.0020 H         1 <0>         0.0737
     39 H11         1.0099    1.4631    0.0003 H         1 <0>         0.0736
     40 H12        -1.7753    1.2154   -1.2238 H         1 <0>         0.0701
     41 H13        -0.7675    2.6825   -1.2255 H         1 <0>         0.0701
     42 H14         0.9860    1.4765   -2.4981 H         1 <0>         0.0619
     43 H15        -0.0218    0.0093   -2.4963 H         1 <0>         0.0620
     44 H16        -1.7991    1.2288   -3.7221 H         1 <0>         0.0602
     45 H17        -0.7913    2.6960   -3.7239 H         1 <0>         0.0602
     46 H18         0.9622    1.4899   -4.9964 H         1 <0>         0.0625
     47 H19        -0.0456    0.0228   -4.9946 H         1 <0>         0.0625
     48 O3         -0.3380    1.3004   -7.4347 O.co2     1 <0>        -0.7786
@<TRIPOS>BOND
     1    1    2 1
     2    1   29 1
     3    1   30 1
     4    1   31 1
     5    2    7 am
     6    2    3 1
     7    3   20 ar
     8    3    4 ar
     9    4    5 1
    10    4   17 ar
    11    5    6 2
    12    5   32 1
    13    6    7 1
    14    6    9 1
    15    7    8 2
    16    9   14 ar
    17    9   10 ar
    18   10   11 ar
    19   10   16 1
    20   11   12 ar
    21   11   33 1
    22   12   13 ar
    23   12   34 1
    24   13   14 ar
    25   13   35 1
    26   14   15 1
    27   17   18 ar
    28   17   36 1
    29   18   19 ar
    30   19   20 ar
    31   19   21 1
    32   21   22 1
    33   21   37 1
    34   22   23 1
    35   22   38 1
    36   22   39 1
    37   23   24 1
    38   23   40 1
    39   23   41 1
    40   24   25 1
    41   24   42 1
    42   24   43 1
    43   25   26 1
    44   25   44 1
    45   25   45 1
    46   26   27 1
    47   26   46 1
    48   26   47 1
    49   27   28 2
    50   27   48 1
@<TRIPOS>MOLECULE
ZINC03815788
   35    37     0     0     0
SMALL
USER_CHARGES

@<TRIPOS>ATOM
      1 C1          5.8557    3.5113   -0.0346 C.3       1 <0>         0.0227
      2 O1          4.6205    4.2299   -0.0186 O.3       1 <0>        -0.3018
      3 C2          3.4780    3.4932   -0.0118 C.ar      1 <0>         0.1252
      4 C3          3.5529    2.1309   -0.0202 C.ar      1 <0>        -0.1738
      5 C4          2.3718    1.3695   -0.0132 C.ar      1 <0>        -0.0882
      6 C5          2.4129   -0.0352   -0.0216 C.ar      1 <0>        -0.0457
      7 C6          1.2077   -0.7224   -0.0138 C.ar      1 <0>        -0.0909
      8 C7          0.0021   -0.0041    0.0020 C.ar      1 <0>         0.1428
      9 N1         -0.0157    1.3049    0.0092 N.ar      1 <0>        -0.4695
     10 C8          1.1131    2.0230    0.0023 C.ar      1 <0>         0.1399
     11 C9          1.0711    3.4273    0.0111 C.ar      1 <0>        -0.1712
     12 C10         2.2339    4.1416    0.0034 C.ar      1 <0>         0.1399
     13 O2          2.1861    5.4996    0.0111 O.3       1 <0>        -0.3012
     14 C11         0.8909    6.1031    0.0265 C.3       1 <0>         0.0216
     15 C12         1.1934   -2.2060   -0.0217 C.ar      1 <0>        -0.1676
     16 C13         1.7188   -2.9260    1.0732 C.ar      1 <0>        -0.0014
     17 C14         1.6915   -4.2872    1.0466 C.ar      1 <0>        -0.3050
     18 C15         1.1405   -4.9457   -0.0669 C.ar      1 <0>         0.3829
     19 O3          1.1113   -6.1654   -0.0985 O.3       1 <0>        -0.3991
     20 N2          0.6500   -4.2368   -1.1006 N.ar      1 <0>        -0.5330
     21 H1          1.5124   -6.5302    0.7418 H         1 <0>         0.4287
     22 C16         0.6723   -2.8810   -1.0875 C.ar      1 <0>         0.1657
     23 H2          5.9027    2.8895   -0.9286 H         1 <0>         0.0583
     24 H3          6.6865    4.2169   -0.0385 H         1 <0>         0.1052
     25 H4          5.9199    2.8795    0.8513 H         1 <0>         0.0580
     26 H5          4.5150    1.6403   -0.0326 H         1 <0>         0.1449
     27 H6          3.3545   -0.5640   -0.0334 H         1 <0>         0.1381
     28 H7         -0.9332   -0.5440    0.0080 H         1 <0>         0.1602
     29 H8          0.1208    3.9403    0.0231 H         1 <0>         0.1511
     30 H9          0.3529    5.7861    0.9200 H         1 <0>         0.0600
     31 H10         0.9956    7.1880    0.0313 H         1 <0>         0.1056
     32 H11         0.3361    5.7955   -0.8599 H         1 <0>         0.0603
     33 H12         2.1370   -2.4038    1.9210 H         1 <0>         0.1328
     34 H13         2.0817   -4.8561    1.8776 H         1 <0>         0.1417
     35 H14         0.2743   -2.3307   -1.9274 H         1 <0>         0.1628
@<TRIPOS>BOND
     1    1    2 1
     2    1   23 1
     3    1   24 1
     4    1   25 1
     5    2    3 1
     6    3   12 ar
     7    3    4 ar
     8    4    5 ar
     9    4   26 1
    10    5   10 ar
    11    5    6 ar
    12    6    7 ar
    13    6   27 1
    14    7    8 ar
    15    7   15 1
    16    8    9 ar
    17    8   28 1
    18    9   10 ar
    19   10   11 ar
    20   11   12 ar
    21   11   29 1
    22   12   13 1
    23   13   14 1
    24   14   30 1
    25   14   31 1
    26   14   32 1
    27   15   16 ar
    28   15   22 ar
    29   16   33 1
    30   16   17 ar
    31   17   34 1
    32   17   18 ar
    33   18   20 ar
    34   18   19 1
    35   19   21 1
    36   20   22 ar
    37   22   35 1
@<TRIPOS>MOLECULE
ZINC03815788
   35    37     0     0     0
SMALL
USER_CHARGES

@<TRIPOS>ATOM
      1 C1          5.8557    3.5113   -0.0346 C.3       1 <0>         0.0227
      2 O1          4.6205    4.2299   -0.0186 O.3       1 <0>        -0.3018
      3 C2          3.4780    3.4932   -0.0118 C.ar      1 <0>         0.1252
      4 C3          3.5529    2.1309   -0.0202 C.ar      1 <0>        -0.1738
      5 C4          2.3718    1.3695   -0.0132 C.ar      1 <0>        -0.0882
      6 C5          2.4129   -0.0352   -0.0216 C.ar      1 <0>        -0.0457
      7 C6          1.2077   -0.7224   -0.0138 C.ar      1 <0>        -0.0909
      8 C7          0.0021   -0.0041    0.0020 C.ar      1 <0>         0.1428
      9 N1         -0.0157    1.3049    0.0092 N.ar      1 <0>        -0.4695
     10 C8          1.1131    2.0230    0.0023 C.ar      1 <0>         0.1399
     11 C9          1.0711    3.4273    0.0111 C.ar      1 <0>        -0.1712
     12 C10         2.2339    4.1416    0.0034 C.ar      1 <0>         0.1399
     13 O2          2.1861    5.4996    0.0111 O.3       1 <0>        -0.3012
     14 C11         0.8909    6.1031    0.0265 C.3       1 <0>         0.0216
     15 C12         1.1934   -2.2060   -0.0217 C.ar      1 <0>        -0.1676
     16 C13         1.7188   -2.9260    1.0732 C.ar      1 <0>        -0.0014
     17 C14         1.6915   -4.2872    1.0466 C.ar      1 <0>        -0.3050
     18 C15         1.1405   -4.9457   -0.0669 C.ar      1 <0>         0.3829
     19 O3          1.1113   -6.1654   -0.0985 O.3       1 <0>        -0.3991
     20 N2          0.6500   -4.2368   -1.1006 N.ar      1 <0>        -0.5330
     21 H1          1.5124   -6.5302    0.7418 H         1 <0>         0.4287
     22 C16         0.6723   -2.8810   -1.0875 C.ar      1 <0>         0.1657
     23 H2          5.9027    2.8895   -0.9286 H         1 <0>         0.0583
     24 H3          6.6865    4.2169   -0.0385 H         1 <0>         0.1052
     25 H4          5.9199    2.8795    0.8513 H         1 <0>         0.0580
     26 H5          4.5150    1.6403   -0.0326 H         1 <0>         0.1449
     27 H6          3.3545   -0.5640   -0.0334 H         1 <0>         0.1381
     28 H7         -0.9332   -0.5440    0.0080 H         1 <0>         0.1602
     29 H8          0.1208    3.9403    0.0231 H         1 <0>         0.1511
     30 H9          0.3529    5.7861    0.9200 H         1 <0>         0.0600
     31 H10         0.9956    7.1880    0.0313 H         1 <0>         0.1056
     32 H11         0.3361    5.7955   -0.8599 H         1 <0>         0.0603
     33 H12         2.1370   -2.4038    1.9210 H         1 <0>         0.1328
     34 H13         2.0817   -4.8561    1.8776 H         1 <0>         0.1417
     35 H14         0.2743   -2.3307   -1.9274 H         1 <0>         0.1628
@<TRIPOS>BOND
     1    1    2 1
     2    1   23 1
     3    1   24 1
     4    1   25 1
     5    2    3 1
     6    3   12 ar
     7    3    4 ar
     8    4    5 ar
     9    4   26 1
    10    5   10 ar
    11    5    6 ar
    12    6    7 ar
    13    6   27 1
    14    7    8 ar
    15    7   15 1
    16    8    9 ar
    17    8   28 1
    18    9   10 ar
    19   10   11 ar
    20   11   12 ar
    21   11   29 1
    22   12   13 1
    23   13   14 1
    24   14   30 1
    25   14   31 1
    26   14   32 1
    27   15   16 ar
    28   15   22 ar
    29   16   33 1
    30   16   17 ar
    31   17   34 1
    32   17   18 ar
    33   18   20 ar
    34   18   19 1
    35   19   21 1
    36   20   22 ar
    37   22   35 1
@<TRIPOS>MOLECULE
ZINC03815789
   38    40     0     0     0
SMALL
USER_CHARGES

@<TRIPOS>ATOM
      1 C1          1.2479    2.0188    0.0010 C.3       1 <0>         0.0225
      2 O1         -0.0163    1.3527    0.0095 O.3       1 <0>        -0.3031
      3 C2          0.0021   -0.0041    0.0020 C.ar      1 <0>         0.1821
      4 C3          1.2051   -0.7021   -0.0190 C.ar      1 <0>        -0.2594
      5 C4          1.1832   -2.0822   -0.0203 C.ar      1 <0>         0.1402
      6 N1          0.0422   -2.7460   -0.0130 N.ar      1 <0>        -0.5040
      7 C5         -1.1234   -2.1310    0.0014 C.ar      1 <0>         0.1500
      8 C6         -1.1921   -0.7411    0.0095 C.ar      1 <0>        -0.1314
      9 C7         -2.5046   -0.0507    0.0252 C.ar      1 <0>        -0.0896
     10 C8         -3.4906   -0.4028   -0.8860 C.ar      1 <0>        -0.0458
     11 C9         -4.7163    0.2811   -0.8291 C.ar      1 <0>        -0.0889
     12 C10        -5.7605   -0.0227   -1.7199 C.ar      1 <0>        -0.1724
     13 C11        -6.9383    0.6601   -1.6373 C.ar      1 <0>         0.1242
     14 C12        -7.1185    1.6630   -0.6721 C.ar      1 <0>         0.1405
     15 C13        -6.1223    1.9790    0.2049 C.ar      1 <0>        -0.1719
     16 C14        -4.8964    1.2942    0.1472 C.ar      1 <0>         0.1421
     17 N2         -3.9083    1.5886    0.9991 N.ar      1 <0>        -0.4713
     18 C15        -2.7606    0.9593    0.9651 C.ar      1 <0>         0.1572
     19 O2         -8.3015    2.3288   -0.6105 O.3       1 <0>        -0.3012
     20 C16        -8.4260    3.3388    0.3926 C.3       1 <0>         0.0217
     21 O3         -7.9482    0.3660   -2.4985 O.3       1 <0>        -0.3020
     22 C17        -7.7035   -0.6648   -3.4575 C.3       1 <0>         0.0226
     23 H1          1.8173    1.7287    0.8840 H         1 <0>         0.0615
     24 H2          1.8004    1.7383   -0.8958 H         1 <0>         0.0602
     25 H3          1.0905    3.0973    0.0083 H         1 <0>         0.1066
     26 H4          2.1451   -0.1704   -0.0298 H         1 <0>         0.1435
     27 H5          2.1151   -2.6280   -0.0325 H         1 <0>         0.1614
     28 H6         -2.0342   -2.7114    0.0073 H         1 <0>         0.1639
     29 H7         -3.3207   -1.1797   -1.6168 H         1 <0>         0.1401
     30 H8         -5.6309   -0.7931   -2.4656 H         1 <0>         0.1454
     31 H9         -6.2757    2.7531    0.9422 H         1 <0>         0.1508
     32 H10        -1.9914    1.2266    1.6745 H         1 <0>         0.1574
     33 H11        -8.2900    2.8917    1.3773 H         1 <0>         0.0601
     34 H12        -7.6669    4.1046    0.2333 H         1 <0>         0.0599
     35 H13        -9.4161    3.7906    0.3323 H         1 <0>         0.1054
     36 H14        -8.5878   -0.7987   -4.0806 H         1 <0>         0.1050
     37 H15        -6.8567   -0.3847   -4.0839 H         1 <0>         0.0580
     38 H16        -7.4795   -1.5973   -2.9394 H         1 <0>         0.0585
@<TRIPOS>BOND
     1    1    2 1
     2    1   23 1
     3    1   24 1
     4    1   25 1
     5    2    3 1
     6    3    8 ar
     7    3    4 ar
     8    4    5 ar
     9    4   26 1
    10    5    6 ar
    11    5   27 1
    12    6    7 ar
    13    7    8 ar
    14    7   28 1
    15    8    9 1
    16    9   18 ar
    17    9   10 ar
    18   10   11 ar
    19   10   29 1
    20   11   16 ar
    21   11   12 ar
    22   12   13 ar
    23   12   30 1
    24   13   14 ar
    25   13   21 1
    26   14   15 ar
    27   14   19 1
    28   15   16 ar
    29   15   31 1
    30   16   17 ar
    31   17   18 ar
    32   18   32 1
    33   19   20 1
    34   20   33 1
    35   20   34 1
    36   20   35 1
    37   21   22 1
    38   22   36 1
    39   22   37 1
    40   22   38 1
@<TRIPOS>MOLECULE
ZINC03815789
   39    41     0     0     0
SMALL
USER_CHARGES

@<TRIPOS>ATOM
      1 C1          1.2479    2.0188    0.0010 C.3       1 <0>         0.0046
      2 O1         -0.0163    1.3527    0.0095 O.3       1 <0>        -0.2660
      3 C2          0.0021   -0.0041    0.0020 C.ar      1 <0>         0.2659
      4 C3          1.2051   -0.7021   -0.0190 C.ar      1 <0>        -0.2202
      5 C4          1.1832   -2.0822   -0.0203 C.ar      1 <0>         0.1777
      6 C5         -1.1234   -2.1310    0.0014 C.ar      1 <0>         0.1661
      7 C6         -1.1921   -0.7411    0.0095 C.ar      1 <0>        -0.0638
      8 C7         -2.5046   -0.0507    0.0252 C.ar      1 <0>        -0.1388
      9 C8         -3.4906   -0.4028   -0.8860 C.ar      1 <0>        -0.0223
     10 C9         -4.7163    0.2811   -0.8291 C.ar      1 <0>        -0.0931
     11 C10        -5.7605   -0.0227   -1.7199 C.ar      1 <0>        -0.1786
     12 C11        -6.9383    0.6601   -1.6373 C.ar      1 <0>         0.1365
     13 C12        -7.1185    1.6630   -0.6721 C.ar      1 <0>         0.1592
     14 C13        -6.1223    1.9790    0.2049 C.ar      1 <0>        -0.1809
     15 C14        -4.8964    1.2942    0.1472 C.ar      1 <0>         0.1602
     16 N1         -3.9083    1.5886    0.9991 N.ar      1 <0>        -0.4591
     17 C15        -2.7606    0.9593    0.9651 C.ar      1 <0>         0.1605
     18 O2         -8.3015    2.3288   -0.6105 O.3       1 <0>        -0.2949
     19 C16        -8.4260    3.3388    0.3926 C.3       1 <0>         0.0187
     20 O3         -7.9482    0.3660   -2.4985 O.3       1 <0>        -0.2960
     21 C17        -7.7035   -0.6648   -3.4575 C.3       1 <0>         0.0212
     22 H1          1.8173    1.7287    0.8840 H         1 <0>         0.0804
     23 H2          1.8004    1.7383   -0.8958 H         1 <0>         0.0790
     24 H3          1.0905    3.0973    0.0083 H         1 <0>         0.1293
     25 H4          2.1451   -0.1704   -0.0298 H         1 <0>         0.1919
     26 H5          2.1151   -2.6280   -0.0325 H         1 <0>         0.2021
     27 H6         -2.0342   -2.7114    0.0073 H         1 <0>         0.2021
     28 H7         -3.3207   -1.1797   -1.6168 H         1 <0>         0.1432
     29 H8         -5.6309   -0.7931   -2.4656 H         1 <0>         0.1492
     30 H9         -6.2757    2.7531    0.9422 H         1 <0>         0.1572
     31 H10        -1.9914    1.2266    1.6745 H         1 <0>         0.1596
     32 H11        -8.2900    2.8917    1.3773 H         1 <0>         0.0635
     33 H12        -7.6669    4.1046    0.2333 H         1 <0>         0.0634
     34 H13        -9.4161    3.7906    0.3323 H         1 <0>         0.1115
     35 H14        -8.5878   -0.7987   -4.0806 H         1 <0>         0.1103
     36 H15        -6.8567   -0.3847   -4.0839 H         1 <0>         0.0599
     37 H16        -7.4795   -1.5973   -2.9394 H         1 <0>         0.0598
     38 N2          0.0438   -2.8273   -0.0135 N.ar      1 <0>        -0.5000
     39 H17         0.0650   -3.8538   -0.0192 H         1 <0>         0.4806
@<TRIPOS>BOND
     1    1    2 1
     2    1   22 1
     3    1   23 1
     4    1   24 1
     5    2    3 1
     6    3    7 ar
     7    3    4 ar
     8    4    5 ar
     9    4   25 1
    10    5   26 1
    11    5   38 ar
    12    6    7 ar
    13    6   27 1
    14    6   38 ar
    15    7    8 1
    16    8   17 ar
    17    8    9 ar
    18    9   10 ar
    19    9   28 1
    20   10   15 ar
    21   10   11 ar
    22   11   12 ar
    23   11   29 1
    24   12   13 ar
    25   12   20 1
    26   13   14 ar
    27   13   18 1
    28   14   15 ar
    29   14   30 1
    30   15   16 ar
    31   16   17 ar
    32   17   31 1
    33   18   19 1
    34   19   32 1
    35   19   33 1
    36   19   34 1
    37   20   21 1
    38   21   35 1
    39   21   36 1
    40   21   37 1
    41   38   39 1
@<TRIPOS>MOLECULE
ZINC03815790
   44    46     0     0     0
SMALL
USER_CHARGES

@<TRIPOS>ATOM
      1 C1         10.0338    4.0863   -1.3234 C.3       1 <0>        -0.0487
      2 C2         10.1473    5.9833    0.1770 C.3       1 <0>        -0.0424
      3 C3          8.0818    4.7401   -0.0487 C.3       1 <0>        -0.0025
      4 C4          7.4970    3.3262   -0.0506 C.3       1 <0>        -0.1527
      5 C5          5.9692    3.4062   -0.0362 C.3       1 <0>         0.0633
      6 O1          5.4230    2.0857   -0.0380 O.3       1 <0>        -0.3111
      7 C6          4.0676    1.9783   -0.0261 C.ar      1 <0>         0.1138
      8 C7          3.2826    3.1280   -0.0125 C.ar      1 <0>        -0.1825
      9 C8          1.9079    3.0336    0.0001 C.ar      1 <0>        -0.0617
     10 C9          1.3000    1.7860   -0.0008 C.ar      1 <0>         0.0227
     11 C10         2.0852    0.6211   -0.0145 C.ar      1 <0>         0.0894
     12 C11         3.4784    0.7299   -0.0272 C.ar      1 <0>        -0.0965
     13 N1          1.2301   -0.4340   -0.0120 N.2       1 <0>        -0.4905
     14 C12         0.0021   -0.0041    0.0020 C.2       1 <0>         0.2859
     15 N2         -0.0164    1.3581    0.0095 N.pl3     1 <0>        -0.4433
     16 C13        -1.1555    2.1739    0.0196 C.ar      1 <0>         0.1167
     17 C14        -1.2691    3.1986    0.9496 C.ar      1 <0>        -0.1176
     18 C15        -2.3904    4.0050    0.9530 C.ar      1 <0>        -0.1002
     19 C16        -3.4047    3.7851    0.0392 C.ar      1 <0>        -0.1100
     20 C17        -3.2972    2.7615   -0.8843 C.ar      1 <0>        -0.0978
     21 C18        -2.1756    1.9556   -0.8967 C.ar      1 <0>        -0.1158
     22 H1          9.7085    4.7089   -2.1568 H         1 <0>         0.1243
     23 H2         11.1227    4.0409   -1.3071 H         1 <0>         0.1244
     24 H3          9.6300    3.0808   -1.4418 H         1 <0>         0.1236
     25 H4          9.8260    6.3568    1.1493 H         1 <0>         0.1223
     26 H5         11.2338    5.8977    0.1615 H         1 <0>         0.1243
     27 H6          9.8261    6.6746   -0.6021 H         1 <0>         0.1237
     28 H7          7.7377    5.2768   -0.9327 H         1 <0>         0.1349
     29 H8          7.7540    5.2676    0.8471 H         1 <0>         0.1332
     30 H9          7.8411    2.7895    0.8334 H         1 <0>         0.0994
     31 H10         7.8248    2.7988   -0.9464 H         1 <0>         0.0995
     32 H11         5.6251    3.9430   -0.9203 H         1 <0>         0.0720
     33 H12         5.6414    3.9337    0.8596 H         1 <0>         0.0722
     34 H13         3.7539    4.0997   -0.0114 H         1 <0>         0.1340
     35 H14         1.3044    3.9292    0.0111 H         1 <0>         0.1295
     36 H15         4.0916   -0.1591   -0.0382 H         1 <0>         0.1414
     37 H16        -0.8745   -0.6349    0.0064 H         1 <0>         0.2206
     38 H17        -0.4794    3.3677    1.6667 H         1 <0>         0.1280
     39 H18        -2.4772    4.8053    1.6731 H         1 <0>         0.1348
     40 H19        -4.2824    4.4144    0.0465 H         1 <0>         0.1338
     41 H20        -4.0910    2.5922   -1.5968 H         1 <0>         0.1369
     42 H21        -2.0920    1.1567   -1.6187 H         1 <0>         0.1328
     43 N3          9.5568    4.6459   -0.0412 N.4       1 <0>        -0.3970
     44 H22         9.8474    4.0244    0.7227 H         1 <0>         0.4330
@<TRIPOS>BOND
     1    1   22 1
     2    1   23 1
     3    1   24 1
     4    1   43 1
     5    2   25 1
     6    2   26 1
     7    2   27 1
     8    2   43 1
     9    3    4 1
    10    3   28 1
    11    3   29 1
    12    3   43 1
    13    4    5 1
    14    4   30 1
    15    4   31 1
    16    5    6 1
    17    5   32 1
    18    5   33 1
    19    6    7 1
    20    7   12 ar
    21    7    8 ar
    22    8    9 ar
    23    8   34 1
    24    9   10 ar
    25    9   35 1
    26   10   15 1
    27   10   11 ar
    28   11   12 ar
    29   11   13 1
    30   12   36 1
    31   13   14 2
    32   14   15 1
    33   14   37 1
    34   15   16 1
    35   16   21 ar
    36   16   17 ar
    37   17   18 ar
    38   17   38 1
    39   18   19 ar
    40   18   39 1
    41   19   20 ar
    42   19   40 1
    43   20   21 ar
    44   20   41 1
    45   21   42 1
    46   43   44 1
@<TRIPOS>MOLECULE
ZINC03815790
   45    47     0     0     0
SMALL
USER_CHARGES

@<TRIPOS>ATOM
      1 C1         10.0338    4.0863   -1.3234 C.3       1 <0>        -0.0495
      2 C2         10.1473    5.9833    0.1770 C.3       1 <0>        -0.0436
      3 C3          8.0818    4.7401   -0.0487 C.3       1 <0>        -0.0028
      4 C4          7.4970    3.3262   -0.0506 C.3       1 <0>        -0.1544
      5 C5          5.9692    3.4062   -0.0362 C.3       1 <0>         0.0573
      6 O1          5.4230    2.0857   -0.0380 O.3       1 <0>        -0.2989
      7 C6          4.0676    1.9783   -0.0261 C.ar      1 <0>         0.1687
      8 C7          3.2826    3.1280   -0.0125 C.ar      1 <0>        -0.1566
      9 C8          1.9079    3.0336    0.0001 C.ar      1 <0>        -0.0353
     10 C9          1.3000    1.7860   -0.0008 C.ar      1 <0>         0.0441
     11 C10         2.0852    0.6211   -0.0145 C.ar      1 <0>         0.0949
     12 C11         3.4784    0.7299   -0.0272 C.ar      1 <0>        -0.1194
     13 C12         0.0021   -0.0041    0.0020 C.cat     1 <0>         0.3838
     14 N1         -0.0164    1.3581    0.0095 N.pl3     1 <0>        -0.3685
     15 C13        -1.1555    2.1739    0.0196 C.ar      1 <0>         0.0622
     16 C14        -1.2691    3.1986    0.9496 C.ar      1 <0>        -0.0960
     17 C15        -2.3904    4.0050    0.9530 C.ar      1 <0>        -0.0957
     18 C16        -3.4047    3.7851    0.0392 C.ar      1 <0>        -0.0783
     19 C17        -3.2972    2.7615   -0.8843 C.ar      1 <0>        -0.0939
     20 C18        -2.1756    1.9556   -0.8967 C.ar      1 <0>        -0.0975
     21 H1          9.7085    4.7089   -2.1568 H         1 <0>         0.1255
     22 H2         11.1227    4.0409   -1.3071 H         1 <0>         0.1273
     23 H3          9.6300    3.0808   -1.4418 H         1 <0>         0.1219
     24 H4          9.8260    6.3568    1.1493 H         1 <0>         0.1236
     25 H5         11.2338    5.8977    0.1615 H         1 <0>         0.1273
     26 H6          9.8261    6.6746   -0.6021 H         1 <0>         0.1252
     27 H7          7.7377    5.2768   -0.9327 H         1 <0>         0.1361
     28 H8          7.7540    5.2676    0.8471 H         1 <0>         0.1345
     29 H9          7.8411    2.7895    0.8334 H         1 <0>         0.1028
     30 H10         7.8248    2.7988   -0.9464 H         1 <0>         0.1029
     31 H11         5.6251    3.9430   -0.9203 H         1 <0>         0.0819
     32 H12         5.6414    3.9337    0.8596 H         1 <0>         0.0821
     33 H13         3.7539    4.0997   -0.0114 H         1 <0>         0.1578
     34 H14         1.3044    3.9292    0.0111 H         1 <0>         0.1569
     35 H15         4.0916   -0.1591   -0.0382 H         1 <0>         0.1630
     36 H16        -0.8745   -0.6349    0.0064 H         1 <0>         0.2693
     37 H17        -0.4794    3.3677    1.6667 H         1 <0>         0.1362
     38 H18        -2.4772    4.8053    1.6731 H         1 <0>         0.1477
     39 H19        -4.2824    4.4144    0.0465 H         1 <0>         0.1465
     40 H20        -4.0910    2.5922   -1.5968 H         1 <0>         0.1492
     41 H21        -2.0920    1.1567   -1.6187 H         1 <0>         0.1397
     42 N2          9.5568    4.6459   -0.0412 N.4       1 <0>        -0.3970
     43 H22         9.8474    4.0244    0.7227 H         1 <0>         0.4337
     44 N3          1.2305   -0.4356   -0.0120 N.pl3     1 <0>        -0.4994
     45 H23         1.5107   -1.4233   -0.0200 H         1 <0>         0.4845
@<TRIPOS>BOND
     1    1   21 1
     2    1   22 1
     3    1   23 1
     4    1   42 1
     5    2   24 1
     6    2   25 1
     7    2   26 1
     8    2   42 1
     9    3    4 1
    10    3   27 1
    11    3   28 1
    12    3   42 1
    13    4    5 1
    14    4   29 1
    15    4   30 1
    16    5    6 1
    17    5   31 1
    18    5   32 1
    19    6    7 1
    20    7   12 ar
    21    7    8 ar
    22    8    9 ar
    23    8   33 1
    24    9   10 ar
    25    9   34 1
    26   10   14 1
    27   10   11 ar
    28   11   12 ar
    29   11   44 1
    30   12   35 1
    31   13   14 1
    32   13   36 1
    33   13   44 2
    34   14   15 1
    35   15   20 ar
    36   15   16 ar
    37   16   17 ar
    38   16   37 1
    39   17   18 ar
    40   17   38 1
    41   18   19 ar
    42   18   39 1
    43   19   20 ar
    44   19   40 1
    45   20   41 1
    46   42   43 1
    47   44   45 1
@<TRIPOS>MOLECULE
ZINC03815791
   47    49     0     0     0
SMALL
USER_CHARGES

@<TRIPOS>ATOM
      1 C1         11.6225    5.9867    0.1634 C.3       1 <0>        -0.0427
      2 C2          9.8462    6.7234   -1.3079 C.3       1 <0>        -0.0475
      3 C3          9.6096    4.6601   -0.0631 C.3       1 <0>        -0.0052
      4 C4          8.0818    4.7401   -0.0487 C.3       1 <0>        -0.1478
      5 C5          7.4970    3.3262   -0.0506 C.3       1 <0>        -0.1186
      6 C6          5.9692    3.4062   -0.0362 C.3       1 <0>         0.0595
      7 O1          5.4230    2.0857   -0.0380 O.3       1 <0>        -0.3120
      8 C7          4.0676    1.9783   -0.0261 C.ar      1 <0>         0.1172
      9 C8          3.2826    3.1280   -0.0125 C.ar      1 <0>        -0.1821
     10 C9          1.9079    3.0336    0.0001 C.ar      1 <0>        -0.0633
     11 C10         1.3000    1.7860   -0.0008 C.ar      1 <0>         0.0209
     12 C11         2.0852    0.6211   -0.0145 C.ar      1 <0>         0.0896
     13 C12         3.4784    0.7299   -0.0272 C.ar      1 <0>        -0.0996
     14 N1          1.2301   -0.4340   -0.0120 N.2       1 <0>        -0.4905
     15 C13         0.0021   -0.0041    0.0020 C.2       1 <0>         0.2841
     16 N2         -0.0164    1.3581    0.0095 N.pl3     1 <0>        -0.4443
     17 C14        -1.1555    2.1739    0.0196 C.ar      1 <0>         0.1186
     18 C15        -1.2691    3.1986    0.9496 C.ar      1 <0>        -0.1179
     19 C16        -2.3904    4.0050    0.9530 C.ar      1 <0>        -0.1004
     20 C17        -3.4047    3.7851    0.0392 C.ar      1 <0>        -0.1111
     21 C18        -3.2972    2.7615   -0.8843 C.ar      1 <0>        -0.0980
     22 C19        -2.1756    1.9556   -0.8967 C.ar      1 <0>        -0.1164
     23 H1         12.1007    5.4118   -0.6296 H         1 <0>         0.1234
     24 H2         12.0124    7.0045    0.1601 H         1 <0>         0.1230
     25 H3         11.8312    5.5208    1.1265 H         1 <0>         0.1221
     26 H4          8.7637    6.7930   -1.4146 H         1 <0>         0.1217
     27 H5         10.2738    7.7256   -1.2801 H         1 <0>         0.1230
     28 H6         10.2602    6.1751   -2.1542 H         1 <0>         0.1240
     29 H7          9.9537    4.1234    0.8210 H         1 <0>         0.1320
     30 H8          9.9374    4.1326   -0.9589 H         1 <0>         0.1336
     31 H9          7.7377    5.2768   -0.9327 H         1 <0>         0.0905
     32 H10         7.7540    5.2676    0.8471 H         1 <0>         0.0904
     33 H11         7.8411    2.7895    0.8334 H         1 <0>         0.0872
     34 H12         7.8248    2.7988   -0.9464 H         1 <0>         0.0869
     35 H13         5.6251    3.9430   -0.9203 H         1 <0>         0.0647
     36 H14         5.6414    3.9337    0.8596 H         1 <0>         0.0650
     37 H15         3.7539    4.0997   -0.0114 H         1 <0>         0.1336
     38 H16         1.3044    3.9292    0.0111 H         1 <0>         0.1283
     39 H17         4.0916   -0.1591   -0.0382 H         1 <0>         0.1411
     40 H18        -0.8745   -0.6349    0.0064 H         1 <0>         0.2199
     41 H19        -0.4794    3.3677    1.6667 H         1 <0>         0.1280
     42 H20        -2.4772    4.8053    1.6731 H         1 <0>         0.1344
     43 H21        -4.2824    4.4144    0.0465 H         1 <0>         0.1333
     44 H22        -4.0910    2.5922   -1.5968 H         1 <0>         0.1365
     45 H23        -2.0920    1.1567   -1.6187 H         1 <0>         0.1326
     46 N3         10.1591    6.0321   -0.0395 N.4       1 <0>        -0.3988
     47 H24         9.7307    6.5496    0.7369 H         1 <0>         0.4312
@<TRIPOS>BOND
     1    1   23 1
     2    1   24 1
     3    1   25 1
     4    1   46 1
     5    2   26 1
     6    2   27 1
     7    2   28 1
     8    2   46 1
     9    3    4 1
    10    3   29 1
    11    3   30 1
    12    3   46 1
    13    4    5 1
    14    4   31 1
    15    4   32 1
    16    5    6 1
    17    5   33 1
    18    5   34 1
    19    6    7 1
    20    6   35 1
    21    6   36 1
    22    7    8 1
    23    8   13 ar
    24    8    9 ar
    25    9   10 ar
    26    9   37 1
    27   10   11 ar
    28   10   38 1
    29   11   16 1
    30   11   12 ar
    31   12   13 ar
    32   12   14 1
    33   13   39 1
    34   14   15 2
    35   15   16 1
    36   15   40 1
    37   16   17 1
    38   17   22 ar
    39   17   18 ar
    40   18   19 ar
    41   18   41 1
    42   19   20 ar
    43   19   42 1
    44   20   21 ar
    45   20   43 1
    46   21   22 ar
    47   21   44 1
    48   22   45 1
    49   46   47 1
@<TRIPOS>MOLECULE
ZINC03815791
   48    50     0     0     0
SMALL
USER_CHARGES

@<TRIPOS>ATOM
      1 C1         11.6225    5.9867    0.1634 C.3       1 <0>        -0.0437
      2 C2          9.8462    6.7234   -1.3079 C.3       1 <0>        -0.0479
      3 C3          9.6096    4.6601   -0.0631 C.3       1 <0>        -0.0054
      4 C4          8.0818    4.7401   -0.0487 C.3       1 <0>        -0.1488
      5 C5          7.4970    3.3262   -0.0506 C.3       1 <0>        -0.1198
      6 C6          5.9692    3.4062   -0.0362 C.3       1 <0>         0.0531
      7 O1          5.4230    2.0857   -0.0380 O.3       1 <0>        -0.2990
      8 C7          4.0676    1.9783   -0.0261 C.ar      1 <0>         0.1718
      9 C8          3.2826    3.1280   -0.0125 C.ar      1 <0>        -0.1566
     10 C9          1.9079    3.0336    0.0001 C.ar      1 <0>        -0.0367
     11 C10         1.3000    1.7860   -0.0008 C.ar      1 <0>         0.0415
     12 C11         2.0852    0.6211   -0.0145 C.ar      1 <0>         0.0952
     13 C12         3.4784    0.7299   -0.0272 C.ar      1 <0>        -0.1226
     14 C13         0.0021   -0.0041    0.0020 C.cat     1 <0>         0.3817
     15 N1         -0.0164    1.3581    0.0095 N.pl3     1 <0>        -0.3689
     16 C14        -1.1555    2.1739    0.0196 C.ar      1 <0>         0.0640
     17 C15        -1.2691    3.1986    0.9496 C.ar      1 <0>        -0.0962
     18 C16        -2.3904    4.0050    0.9530 C.ar      1 <0>        -0.0959
     19 C17        -3.4047    3.7851    0.0392 C.ar      1 <0>        -0.0792
     20 C18        -3.2972    2.7615   -0.8843 C.ar      1 <0>        -0.0942
     21 C19        -2.1756    1.9556   -0.8967 C.ar      1 <0>        -0.0979
     22 H1         12.1007    5.4118   -0.6296 H         1 <0>         0.1246
     23 H2         12.0124    7.0045    0.1601 H         1 <0>         0.1253
     24 H3         11.8312    5.5208    1.1265 H         1 <0>         0.1230
     25 H4          8.7637    6.7930   -1.4146 H         1 <0>         0.1202
     26 H5         10.2738    7.7256   -1.2801 H         1 <0>         0.1253
     27 H6         10.2602    6.1751   -2.1542 H         1 <0>         0.1248
     28 H7          9.9537    4.1234    0.8210 H         1 <0>         0.1326
     29 H8          9.9374    4.1326   -0.9589 H         1 <0>         0.1343
     30 H9          7.7377    5.2768   -0.9327 H         1 <0>         0.0922
     31 H10         7.7540    5.2676    0.8471 H         1 <0>         0.0920
     32 H11         7.8411    2.7895    0.8334 H         1 <0>         0.0908
     33 H12         7.8248    2.7988   -0.9464 H         1 <0>         0.0905
     34 H13         5.6251    3.9430   -0.9203 H         1 <0>         0.0748
     35 H14         5.6414    3.9337    0.8596 H         1 <0>         0.0751
     36 H15         3.7539    4.0997   -0.0114 H         1 <0>         0.1572
     37 H16         1.3044    3.9292    0.0111 H         1 <0>         0.1557
     38 H17         4.0916   -0.1591   -0.0382 H         1 <0>         0.1627
     39 H18        -0.8745   -0.6349    0.0064 H         1 <0>         0.2686
     40 H19        -0.4794    3.3677    1.6667 H         1 <0>         0.1363
     41 H20        -2.4772    4.8053    1.6731 H         1 <0>         0.1473
     42 H21        -4.2824    4.4144    0.0465 H         1 <0>         0.1460
     43 H22        -4.0910    2.5922   -1.5968 H         1 <0>         0.1489
     44 H23        -2.0920    1.1567   -1.6187 H         1 <0>         0.1396
     45 N2         10.1591    6.0321   -0.0395 N.4       1 <0>        -0.3987
     46 H24         9.7307    6.5496    0.7369 H         1 <0>         0.4314
     47 N3          1.2305   -0.4356   -0.0120 N.pl3     1 <0>        -0.4992
     48 H25         1.5107   -1.4233   -0.0200 H         1 <0>         0.4840
@<TRIPOS>BOND
     1    1   22 1
     2    1   23 1
     3    1   24 1
     4    1   45 1
     5    2   25 1
     6    2   26 1
     7    2   27 1
     8    2   45 1
     9    3    4 1
    10    3   28 1
    11    3   29 1
    12    3   45 1
    13    4    5 1
    14    4   30 1
    15    4   31 1
    16    5    6 1
    17    5   32 1
    18    5   33 1
    19    6    7 1
    20    6   34 1
    21    6   35 1
    22    7    8 1
    23    8   13 ar
    24    8    9 ar
    25    9   10 ar
    26    9   36 1
    27   10   11 ar
    28   10   37 1
    29   11   15 1
    30   11   12 ar
    31   12   13 ar
    32   12   47 1
    33   13   38 1
    34   14   15 1
    35   14   39 1
    36   14   47 2
    37   15   16 1
    38   16   21 ar
    39   16   17 ar
    40   17   18 ar
    41   17   40 1
    42   18   19 ar
    43   18   41 1
    44   19   20 ar
    45   19   42 1
    46   20   21 ar
    47   20   43 1
    48   21   44 1
    49   45   46 1
    50   47   48 1
@<TRIPOS>MOLECULE
ZINC03815792
   32    34     0     0     0
SMALL
USER_CHARGES

@<TRIPOS>ATOM
      1 C1          7.4970    3.3262   -0.0516 C.3       1 <0>        -0.1535
      2 C2          5.9692    3.4062   -0.0366 C.3       1 <0>         0.0544
      3 O1          5.4230    2.0857   -0.0385 O.3       1 <0>        -0.3135
      4 C3          4.0676    1.9783   -0.0261 C.ar      1 <0>         0.1258
      5 C4          3.2826    3.1280   -0.0129 C.ar      1 <0>        -0.1787
      6 C5          1.9079    3.0336   -0.0003 C.ar      1 <0>        -0.0664
      7 C6          1.3000    1.7860   -0.0008 C.ar      1 <0>         0.0169
      8 C7          2.0852    0.6211   -0.0145 C.ar      1 <0>         0.0882
      9 C8          3.4784    0.7299   -0.0272 C.ar      1 <0>        -0.1066
     10 N1          1.2301   -0.4340   -0.0120 N.2       1 <0>        -0.4903
     11 C9          0.0021   -0.0041    0.0020 C.2       1 <0>         0.2768
     12 N2         -0.0164    1.3581    0.0095 N.pl3     1 <0>        -0.4468
     13 C10        -1.1555    2.1739    0.0196 C.ar      1 <0>         0.1245
     14 C11        -1.2691    3.1986    0.9496 C.ar      1 <0>        -0.1181
     15 C12        -2.3902    4.0053    0.9527 C.ar      1 <0>        -0.1002
     16 C13        -3.4047    3.7851    0.0392 C.ar      1 <0>        -0.1146
     17 C14        -3.2972    2.7615   -0.8843 C.ar      1 <0>        -0.0995
     18 C15        -2.1756    1.9556   -0.8967 C.ar      1 <0>        -0.1184
     19 H1          7.9136    4.3335   -0.0502 H         1 <0>         0.0790
     20 H2          7.8414    2.7893    0.8323 H         1 <0>         0.0672
     21 H3          7.8245    2.7989   -0.9476 H         1 <0>         0.0672
     22 H4          5.6248    3.9431   -0.9205 H         1 <0>         0.0623
     23 H5          5.6417    3.9336    0.8594 H         1 <0>         0.0623
     24 H6          3.7539    4.0997   -0.0122 H         1 <0>         0.1376
     25 H7          1.3044    3.9292    0.0102 H         1 <0>         0.1268
     26 H8          4.0916   -0.1591   -0.0382 H         1 <0>         0.1402
     27 H9         -0.8745   -0.6349    0.0067 H         1 <0>         0.2171
     28 H10        -0.4794    3.3677    1.6667 H         1 <0>         0.1292
     29 H11        -2.4768    4.8058    1.6725 H         1 <0>         0.1335
     30 H12        -4.2825    4.4142    0.0467 H         1 <0>         0.1314
     31 H13        -4.0910    2.5922   -1.5968 H         1 <0>         0.1345
     32 H14        -2.0920    1.1567   -1.6187 H         1 <0>         0.1318
@<TRIPOS>BOND
     1    1    2 1
     2    1   19 1
     3    1   20 1
     4    1   21 1
     5    2    3 1
     6    2   22 1
     7    2   23 1
     8    3    4 1
     9    4    9 ar
    10    4    5 ar
    11    5    6 ar
    12    5   24 1
    13    6    7 ar
    14    6   25 1
    15    7   12 1
    16    7    8 ar
    17    8    9 ar
    18    8   10 1
    19    9   26 1
    20   10   11 2
    21   11   12 1
    22   11   27 1
    23   12   13 1
    24   13   18 ar
    25   13   14 ar
    26   14   15 ar
    27   14   28 1
    28   15   16 ar
    29   15   29 1
    30   16   17 ar
    31   16   30 1
    32   17   18 ar
    33   17   31 1
    34   18   32 1
@<TRIPOS>MOLECULE
ZINC03815792
   33    35     0     0     0
SMALL
USER_CHARGES

@<TRIPOS>ATOM
      1 C1          7.4970    3.3262   -0.0516 C.3       1 <0>        -0.1574
      2 C2          5.9692    3.4062   -0.0366 C.3       1 <0>         0.0484
      3 O1          5.4230    2.0857   -0.0385 O.3       1 <0>        -0.2991
      4 C3          4.0676    1.9783   -0.0261 C.ar      1 <0>         0.1800
      5 C4          3.2826    3.1280   -0.0129 C.ar      1 <0>        -0.1537
      6 C5          1.9079    3.0336   -0.0003 C.ar      1 <0>        -0.0393
      7 C6          1.3000    1.7860   -0.0008 C.ar      1 <0>         0.0355
      8 C7          2.0852    0.6211   -0.0145 C.ar      1 <0>         0.0946
      9 C8          3.4784    0.7299   -0.0272 C.ar      1 <0>        -0.1301
     10 C9          0.0021   -0.0041    0.0020 C.cat     1 <0>         0.3737
     11 N1         -0.0164    1.3581    0.0095 N.pl3     1 <0>        -0.3696
     12 C10        -1.1555    2.1739    0.0196 C.ar      1 <0>         0.0690
     13 C11        -1.2691    3.1986    0.9496 C.ar      1 <0>        -0.0957
     14 C12        -2.3902    4.0053    0.9527 C.ar      1 <0>        -0.0960
     15 C13        -3.4047    3.7851    0.0392 C.ar      1 <0>        -0.0824
     16 C14        -3.2972    2.7615   -0.8843 C.ar      1 <0>        -0.0959
     17 C15        -2.1756    1.9556   -0.8967 C.ar      1 <0>        -0.0994
     18 H1          7.9136    4.3335   -0.0502 H         1 <0>         0.0884
     19 H2          7.8414    2.7893    0.8323 H         1 <0>         0.0715
     20 H3          7.8245    2.7989   -0.9476 H         1 <0>         0.0715
     21 H4          5.6248    3.9431   -0.9205 H         1 <0>         0.0727
     22 H5          5.6417    3.9336    0.8594 H         1 <0>         0.0727
     23 H6          3.7539    4.0997   -0.0122 H         1 <0>         0.1609
     24 H7          1.3044    3.9292    0.0102 H         1 <0>         0.1540
     25 H8          4.0916   -0.1591   -0.0382 H         1 <0>         0.1616
     26 H9         -0.8745   -0.6349    0.0067 H         1 <0>         0.2659
     27 H10        -0.4794    3.3677    1.6667 H         1 <0>         0.1375
     28 H11        -2.4768    4.8058    1.6725 H         1 <0>         0.1466
     29 H12        -4.2825    4.4142    0.0467 H         1 <0>         0.1443
     30 H13        -4.0910    2.5922   -1.5968 H         1 <0>         0.1470
     31 H14        -2.0920    1.1567   -1.6187 H         1 <0>         0.1388
     32 N2          1.2305   -0.4356   -0.0120 N.pl3     1 <0>        -0.4981
     33 H15         1.5107   -1.4233   -0.0200 H         1 <0>         0.4820
@<TRIPOS>BOND
     1    1    2 1
     2    1   18 1
     3    1   19 1
     4    1   20 1
     5    2    3 1
     6    2   21 1
     7    2   22 1
     8    3    4 1
     9    4    9 ar
    10    4    5 ar
    11    5    6 ar
    12    5   23 1
    13    6    7 ar
    14    6   24 1
    15    7   11 1
    16    7    8 ar
    17    8    9 ar
    18    8   32 1
    19    9   25 1
    20   10   11 1
    21   10   26 1
    22   10   32 2
    23   11   12 1
    24   12   17 ar
    25   12   13 ar
    26   13   14 ar
    27   13   27 1
    28   14   15 ar
    29   14   28 1
    30   15   16 ar
    31   15   29 1
    32   16   17 ar
    33   16   30 1
    34   17   31 1
    35   32   33 1
@<TRIPOS>MOLECULE
ZINC03815793
   35    37     0     0     0
SMALL
USER_CHARGES

@<TRIPOS>ATOM
      1 C1          8.0818    4.7401   -0.0487 C.3       1 <0>        -0.1507
      2 C2          7.4970    3.3262   -0.0506 C.3       1 <0>        -0.1244
      3 C3          5.9692    3.4062   -0.0362 C.3       1 <0>         0.0583
      4 O1          5.4230    2.0857   -0.0380 O.3       1 <0>        -0.3131
      5 C4          4.0676    1.9783   -0.0261 C.ar      1 <0>         0.1262
      6 C5          3.2826    3.1280   -0.0125 C.ar      1 <0>        -0.1787
      7 C6          1.9079    3.0336    0.0001 C.ar      1 <0>        -0.0663
      8 C7          1.3000    1.7860   -0.0008 C.ar      1 <0>         0.0170
      9 C8          2.0852    0.6211   -0.0145 C.ar      1 <0>         0.0883
     10 C9          3.4784    0.7299   -0.0272 C.ar      1 <0>        -0.1066
     11 N1          1.2301   -0.4340   -0.0120 N.2       1 <0>        -0.4903
     12 C10         0.0021   -0.0041    0.0020 C.2       1 <0>         0.2768
     13 N2         -0.0164    1.3581    0.0095 N.pl3     1 <0>        -0.4467
     14 C11        -1.1555    2.1739    0.0196 C.ar      1 <0>         0.1245
     15 C12        -1.2691    3.1986    0.9496 C.ar      1 <0>        -0.1181
     16 C13        -2.3904    4.0050    0.9530 C.ar      1 <0>        -0.1002
     17 C14        -3.4047    3.7851    0.0392 C.ar      1 <0>        -0.1146
     18 C15        -3.2972    2.7615   -0.8843 C.ar      1 <0>        -0.0995
     19 C16        -2.1756    1.9556   -0.8967 C.ar      1 <0>        -0.1183
     20 H1          9.1702    4.6831   -0.0590 H         1 <0>         0.0655
     21 H2          7.7377    5.2768   -0.9327 H         1 <0>         0.0577
     22 H3          7.7540    5.2676    0.8471 H         1 <0>         0.0577
     23 H4          7.8411    2.7895    0.8334 H         1 <0>         0.0744
     24 H5          7.8248    2.7988   -0.9464 H         1 <0>         0.0744
     25 H6          5.6251    3.9430   -0.9203 H         1 <0>         0.0624
     26 H7          5.6414    3.9337    0.8596 H         1 <0>         0.0624
     27 H8          3.7539    4.0997   -0.0114 H         1 <0>         0.1374
     28 H9          1.3044    3.9292    0.0111 H         1 <0>         0.1268
     29 H10         4.0916   -0.1591   -0.0382 H         1 <0>         0.1402
     30 H11        -0.8745   -0.6349    0.0064 H         1 <0>         0.2171
     31 H12        -0.4794    3.3677    1.6667 H         1 <0>         0.1291
     32 H13        -2.4772    4.8053    1.6731 H         1 <0>         0.1335
     33 H14        -4.2824    4.4144    0.0465 H         1 <0>         0.1315
     34 H15        -4.0910    2.5922   -1.5968 H         1 <0>         0.1345
     35 H16        -2.0920    1.1567   -1.6187 H         1 <0>         0.1318
@<TRIPOS>BOND
     1    1    2 1
     2    1   20 1
     3    1   21 1
     4    1   22 1
     5    2    3 1
     6    2   23 1
     7    2   24 1
     8    3    4 1
     9    3   25 1
    10    3   26 1
    11    4    5 1
    12    5   10 ar
    13    5    6 ar
    14    6    7 ar
    15    6   27 1
    16    7    8 ar
    17    7   28 1
    18    8   13 1
    19    8    9 ar
    20    9   10 ar
    21    9   11 1
    22   10   29 1
    23   11   12 2
    24   12   13 1
    25   12   30 1
    26   13   14 1
    27   14   19 ar
    28   14   15 ar
    29   15   16 ar
    30   15   31 1
    31   16   17 ar
    32   16   32 1
    33   17   18 ar
    34   17   33 1
    35   18   19 ar
    36   18   34 1
    37   19   35 1
@<TRIPOS>MOLECULE
ZINC03815793
   36    38     0     0     0
SMALL
USER_CHARGES

@<TRIPOS>ATOM
      1 C1          8.0818    4.7401   -0.0487 C.3       1 <0>        -0.1534
      2 C2          7.4970    3.3262   -0.0506 C.3       1 <0>        -0.1251
      3 C3          5.9692    3.4062   -0.0362 C.3       1 <0>         0.0513
      4 O1          5.4230    2.0857   -0.0380 O.3       1 <0>        -0.2985
      5 C4          4.0676    1.9783   -0.0261 C.ar      1 <0>         0.1803
      6 C5          3.2826    3.1280   -0.0125 C.ar      1 <0>        -0.1538
      7 C6          1.9079    3.0336    0.0001 C.ar      1 <0>        -0.0392
      8 C7          1.3000    1.7860   -0.0008 C.ar      1 <0>         0.0356
      9 C8          2.0852    0.6211   -0.0145 C.ar      1 <0>         0.0946
     10 C9          3.4784    0.7299   -0.0272 C.ar      1 <0>        -0.1300
     11 C10         0.0021   -0.0041    0.0020 C.cat     1 <0>         0.3737
     12 N1         -0.0164    1.3581    0.0095 N.pl3     1 <0>        -0.3695
     13 C11        -1.1555    2.1739    0.0196 C.ar      1 <0>         0.0690
     14 C12        -1.2691    3.1986    0.9496 C.ar      1 <0>        -0.0957
     15 C13        -2.3904    4.0050    0.9530 C.ar      1 <0>        -0.0960
     16 C14        -3.4047    3.7851    0.0392 C.ar      1 <0>        -0.0824
     17 C15        -3.2972    2.7615   -0.8843 C.ar      1 <0>        -0.0959
     18 C16        -2.1756    1.9556   -0.8967 C.ar      1 <0>        -0.0994
     19 H1          9.1702    4.6831   -0.0590 H         1 <0>         0.0714
     20 H2          7.7377    5.2768   -0.9327 H         1 <0>         0.0601
     21 H3          7.7540    5.2676    0.8471 H         1 <0>         0.0601
     22 H4          7.8411    2.7895    0.8334 H         1 <0>         0.0783
     23 H5          7.8248    2.7988   -0.9464 H         1 <0>         0.0782
     24 H6          5.6251    3.9430   -0.9203 H         1 <0>         0.0729
     25 H7          5.6414    3.9337    0.8596 H         1 <0>         0.0729
     26 H8          3.7539    4.0997   -0.0114 H         1 <0>         0.1607
     27 H9          1.3044    3.9292    0.0111 H         1 <0>         0.1540
     28 H10         4.0916   -0.1591   -0.0382 H         1 <0>         0.1617
     29 H11        -0.8745   -0.6349    0.0064 H         1 <0>         0.2659
     30 H12        -0.4794    3.3677    1.6667 H         1 <0>         0.1375
     31 H13        -2.4772    4.8053    1.6731 H         1 <0>         0.1466
     32 H14        -4.2824    4.4144    0.0465 H         1 <0>         0.1443
     33 H15        -4.0910    2.5922   -1.5968 H         1 <0>         0.1470
     34 H16        -2.0920    1.1567   -1.6187 H         1 <0>         0.1388
     35 N2          1.2305   -0.4356   -0.0120 N.pl3     1 <0>        -0.4981
     36 H17         1.5107   -1.4233   -0.0200 H         1 <0>         0.4820
@<TRIPOS>BOND
     1    1    2 1
     2    1   19 1
     3    1   20 1
     4    1   21 1
     5    2    3 1
     6    2   22 1
     7    2   23 1
     8    3    4 1
     9    3   24 1
    10    3   25 1
    11    4    5 1
    12    5   10 ar
    13    5    6 ar
    14    6    7 ar
    15    6   26 1
    16    7    8 ar
    17    7   27 1
    18    8   12 1
    19    8    9 ar
    20    9   10 ar
    21    9   35 1
    22   10   28 1
    23   11   12 1
    24   11   29 1
    25   11   35 2
    26   12   13 1
    27   13   18 ar
    28   13   14 ar
    29   14   15 ar
    30   14   30 1
    31   15   16 ar
    32   15   31 1
    33   16   17 ar
    34   16   32 1
    35   17   18 ar
    36   17   33 1
    37   18   34 1
    38   35   36 1
@<TRIPOS>MOLECULE
ZINC03815794
   31    33     0     0     0
SMALL
USER_CHARGES

@<TRIPOS>ATOM
      1 C1          6.0404   -1.8896   -0.0662 C.3       1 <0>         0.0273
      2 O1          5.4589   -0.5843   -0.0537 O.3       1 <0>        -0.3155
      3 C2          4.1011   -0.5135   -0.0399 C.ar      1 <0>         0.1199
      4 C3          3.3473   -1.6841   -0.0389 C.ar      1 <0>        -0.1802
      5 C4          1.9706   -1.6269   -0.0259 C.ar      1 <0>        -0.0662
      6 C5          1.3292   -0.3962   -0.0128 C.ar      1 <0>         0.0175
      7 C6          2.0829    0.7895   -0.0136 C.ar      1 <0>         0.0865
      8 C7          3.4786    0.7185   -0.0273 C.ar      1 <0>        -0.1067
      9 N1          1.1998    1.8211    0.0004 N.2       1 <0>        -0.4945
     10 C8         -0.0164    1.3576    0.0095 C.2       1 <0>         0.2740
     11 N2          0.0021   -0.0041    0.0020 N.pl3     1 <0>        -0.4358
     12 C9         -1.1161   -0.8516    0.0086 C.ar      1 <0>         0.0587
     13 C10        -1.2139   -1.8786   -0.9206 C.ar      1 <0>        -0.0638
     14 C11        -2.3117   -2.7156   -0.9113 C.ar      1 <0>        -0.1814
     15 C12        -3.3236   -2.5234    0.0206 C.ar      1 <0>         0.2242
     16 C13        -3.2279   -1.4926    0.9466 C.ar      1 <0>        -0.1809
     17 C14        -2.1271   -0.6594    0.9405 C.ar      1 <0>        -0.0640
     18 N3         -4.4388   -3.3673    0.0262 N.pl3     1 <0>        -0.8733
     19 H1          5.7101   -2.4260   -0.9557 H         1 <0>         0.0554
     20 H2          7.1269   -1.8033   -0.0765 H         1 <0>         0.1010
     21 H3          5.7277   -2.4352    0.8241 H         1 <0>         0.0554
     22 H4          3.8446   -2.6427   -0.0492 H         1 <0>         0.1369
     23 H5          1.3915   -2.5385   -0.0251 H         1 <0>         0.1262
     24 H6          4.0676    1.6237   -0.0277 H         1 <0>         0.1390
     25 H7         -0.9098    1.9643    0.0172 H         1 <0>         0.2153
     26 H8         -0.4292   -2.0252   -1.6480 H         1 <0>         0.1285
     27 H9         -2.3857   -3.5173   -1.6312 H         1 <0>         0.1305
     28 H10        -4.0147   -1.3427    1.6711 H         1 <0>         0.1315
     29 H11        -2.0526    0.1421    1.6605 H         1 <0>         0.1312
     30 H12        -5.1455   -3.2328    0.6768 H         1 <0>         0.4016
     31 H13        -4.5056   -4.0872   -0.6205 H         1 <0>         0.4015
@<TRIPOS>BOND
     1    1    2 1
     2    1   19 1
     3    1   20 1
     4    1   21 1
     5    2    3 1
     6    3    8 ar
     7    3    4 ar
     8    4    5 ar
     9    4   22 1
    10    5    6 ar
    11    5   23 1
    12    6   11 1
    13    6    7 ar
    14    7    8 ar
    15    7    9 1
    16    8   24 1
    17    9   10 2
    18   10   11 1
    19   10   25 1
    20   11   12 1
    21   12   17 ar
    22   12   13 ar
    23   13   14 ar
    24   13   26 1
    25   14   15 ar
    26   14   27 1
    27   15   16 ar
    28   15   18 1
    29   16   17 ar
    30   16   28 1
    31   17   29 1
    32   18   30 1
    33   18   31 1
@<TRIPOS>MOLECULE
ZINC03815794
   32    34     0     0     0
SMALL
USER_CHARGES

@<TRIPOS>ATOM
      1 C1          6.0404   -1.8896   -0.0662 C.3       1 <0>         0.0180
      2 O1          5.4589   -0.5843   -0.0537 O.3       1 <0>        -0.3002
      3 C2          4.1011   -0.5135   -0.0399 C.ar      1 <0>         0.1747
      4 C3          3.3473   -1.6841   -0.0389 C.ar      1 <0>        -0.1559
      5 C4          1.9706   -1.6269   -0.0259 C.ar      1 <0>        -0.0384
      6 C5          1.3292   -0.3962   -0.0128 C.ar      1 <0>         0.0355
      7 C6          2.0829    0.7895   -0.0136 C.ar      1 <0>         0.0947
      8 C7          3.4786    0.7185   -0.0273 C.ar      1 <0>        -0.1313
      9 C8         -0.0164    1.3576    0.0095 C.cat     1 <0>         0.3656
     10 N1          0.0021   -0.0041    0.0020 N.pl3     1 <0>        -0.3539
     11 C9         -1.1161   -0.8516    0.0086 C.ar      1 <0>        -0.0051
     12 C10        -1.2139   -1.8786   -0.9206 C.ar      1 <0>        -0.0389
     13 C11        -2.3117   -2.7156   -0.9113 C.ar      1 <0>        -0.1818
     14 C12        -3.3236   -2.5234    0.0206 C.ar      1 <0>         0.2564
     15 C13        -3.2279   -1.4926    0.9466 C.ar      1 <0>        -0.1817
     16 C14        -2.1271   -0.6594    0.9405 C.ar      1 <0>        -0.0423
     17 N2         -4.4388   -3.3673    0.0262 N.pl3     1 <0>        -0.8575
     18 H1          5.7101   -2.4260   -0.9557 H         1 <0>         0.0664
     19 H2          7.1269   -1.8033   -0.0765 H         1 <0>         0.1158
     20 H3          5.7277   -2.4352    0.8241 H         1 <0>         0.0664
     21 H4          3.8446   -2.6427   -0.0492 H         1 <0>         0.1602
     22 H5          1.3915   -2.5385   -0.0251 H         1 <0>         0.1535
     23 H6          4.0676    1.6237   -0.0277 H         1 <0>         0.1603
     24 H7         -0.9098    1.9643    0.0172 H         1 <0>         0.2638
     25 H8         -0.4292   -2.0252   -1.6480 H         1 <0>         0.1360
     26 H9         -2.3857   -3.5173   -1.6312 H         1 <0>         0.1425
     27 H10        -4.0147   -1.3427    1.6711 H         1 <0>         0.1429
     28 H11        -2.0526    0.1421    1.6605 H         1 <0>         0.1374
     29 H12        -5.1455   -3.2328    0.6768 H         1 <0>         0.4093
     30 H13        -4.5056   -4.0872   -0.6205 H         1 <0>         0.4092
     31 N3          1.2002    1.8225    0.0004 N.pl3     1 <0>        -0.5018
     32 H14         1.4535    2.8175    0.0034 H         1 <0>         0.4803
@<TRIPOS>BOND
     1    1    2 1
     2    1   18 1
     3    1   19 1
     4    1   20 1
     5    2    3 1
     6    3    8 ar
     7    3    4 ar
     8    4    5 ar
     9    4   21 1
    10    5    6 ar
    11    5   22 1
    12    6   10 1
    13    6    7 ar
    14    7    8 ar
    15    7   31 1
    16    8   23 1
    17    9   10 1
    18    9   24 1
    19    9   31 2
    20   10   11 1
    21   11   16 ar
    22   11   12 ar
    23   12   13 ar
    24   12   25 1
    25   13   14 ar
    26   13   26 1
    27   14   15 ar
    28   14   17 1
    29   15   16 ar
    30   15   27 1
    31   16   28 1
    32   17   29 1
    33   17   30 1
    34   31   32 1
@<TRIPOS>MOLECULE
ZINC03815796
   33    35     0     0     0
SMALL
USER_CHARGES

@<TRIPOS>ATOM
      1 C1          8.1625    4.0986   -0.8561 C.2       1 <0>        -0.1683
      2 C2          7.4741    3.3274   -0.0514 C.2       1 <0>        -0.1592
      3 C3          5.9692    3.4062   -0.0366 C.3       1 <0>         0.0872
      4 O1          5.4230    2.0857   -0.0385 O.3       1 <0>        -0.3086
      5 C4          4.0676    1.9783   -0.0261 C.ar      1 <0>         0.1252
      6 C5          3.2826    3.1280   -0.0129 C.ar      1 <0>        -0.1792
      7 C6          1.9079    3.0336   -0.0003 C.ar      1 <0>        -0.0658
      8 C7          1.3000    1.7860   -0.0008 C.ar      1 <0>         0.0174
      9 C8          2.0852    0.6211   -0.0145 C.ar      1 <0>         0.0884
     10 C9          3.4784    0.7299   -0.0272 C.ar      1 <0>        -0.1052
     11 N1          1.2301   -0.4340   -0.0120 N.2       1 <0>        -0.4901
     12 C10         0.0021   -0.0041    0.0020 C.2       1 <0>         0.2771
     13 N2         -0.0164    1.3581    0.0095 N.pl3     1 <0>        -0.4466
     14 C11        -1.1555    2.1739    0.0196 C.ar      1 <0>         0.1243
     15 C12        -1.2691    3.1986    0.9496 C.ar      1 <0>        -0.1181
     16 C13        -2.3902    4.0053    0.9527 C.ar      1 <0>        -0.1002
     17 C14        -3.4047    3.7851    0.0392 C.ar      1 <0>        -0.1145
     18 C15        -3.2972    2.7615   -0.8843 C.ar      1 <0>        -0.0995
     19 C16        -2.1756    1.9556   -0.8967 C.ar      1 <0>        -0.1183
     20 H1          9.2409    4.0421   -0.8667 H         1 <0>         0.1091
     21 H2          7.6515    4.7908   -1.5089 H         1 <0>         0.0998
     22 H3          7.9850    2.6352    0.6014 H         1 <0>         0.1211
     23 H4          5.6248    3.9431   -0.9205 H         1 <0>         0.0680
     24 H5          5.6417    3.9336    0.8594 H         1 <0>         0.0728
     25 H6          3.7539    4.0997   -0.0122 H         1 <0>         0.1375
     26 H7          1.3044    3.9292    0.0102 H         1 <0>         0.1271
     27 H8          4.0916   -0.1591   -0.0382 H         1 <0>         0.1406
     28 H9         -0.8745   -0.6349    0.0067 H         1 <0>         0.2172
     29 H10        -0.4794    3.3677    1.6667 H         1 <0>         0.1292
     30 H11        -2.4768    4.8058    1.6725 H         1 <0>         0.1336
     31 H12        -4.2825    4.4142    0.0467 H         1 <0>         0.1315
     32 H13        -4.0910    2.5922   -1.5968 H         1 <0>         0.1346
     33 H14        -2.0920    1.1567   -1.6187 H         1 <0>         0.1318
@<TRIPOS>BOND
     1    1    2 2
     2    1   20 1
     3    1   21 1
     4    2    3 1
     5    2   22 1
     6    3    4 1
     7    3   23 1
     8    3   24 1
     9    4    5 1
    10    5   10 ar
    11    5    6 ar
    12    6    7 ar
    13    6   25 1
    14    7    8 ar
    15    7   26 1
    16    8   13 1
    17    8    9 ar
    18    9   10 ar
    19    9   11 1
    20   10   27 1
    21   11   12 2
    22   12   13 1
    23   12   28 1
    24   13   14 1
    25   14   19 ar
    26   14   15 ar
    27   15   16 ar
    28   15   29 1
    29   16   17 ar
    30   16   30 1
    31   17   18 ar
    32   17   31 1
    33   18   19 ar
    34   18   32 1
    35   19   33 1
@<TRIPOS>MOLECULE
ZINC03815796
   34    36     0     0     0
SMALL
USER_CHARGES

@<TRIPOS>ATOM
      1 C1          8.1625    4.0986   -0.8561 C.2       1 <0>        -0.1503
      2 C2          7.4741    3.3274   -0.0514 C.2       1 <0>        -0.1747
      3 C3          5.9692    3.4062   -0.0366 C.3       1 <0>         0.0839
      4 O1          5.4230    2.0857   -0.0385 O.3       1 <0>        -0.2944
      5 C4          4.0676    1.9783   -0.0261 C.ar      1 <0>         0.1796
      6 C5          3.2826    3.1280   -0.0129 C.ar      1 <0>        -0.1544
      7 C6          1.9079    3.0336   -0.0003 C.ar      1 <0>        -0.0387
      8 C7          1.3000    1.7860   -0.0008 C.ar      1 <0>         0.0359
      9 C8          2.0852    0.6211   -0.0145 C.ar      1 <0>         0.0948
     10 C9          3.4784    0.7299   -0.0272 C.ar      1 <0>        -0.1289
     11 C10         0.0021   -0.0041    0.0020 C.cat     1 <0>         0.3741
     12 N1         -0.0164    1.3581    0.0095 N.pl3     1 <0>        -0.3696
     13 C11        -1.1555    2.1739    0.0196 C.ar      1 <0>         0.0689
     14 C12        -1.2691    3.1986    0.9496 C.ar      1 <0>        -0.0957
     15 C13        -2.3902    4.0053    0.9527 C.ar      1 <0>        -0.0960
     16 C14        -3.4047    3.7851    0.0392 C.ar      1 <0>        -0.0824
     17 C15        -3.2972    2.7615   -0.8843 C.ar      1 <0>        -0.0959
     18 C16        -2.1756    1.9556   -0.8967 C.ar      1 <0>        -0.0994
     19 H1          9.2409    4.0421   -0.8667 H         1 <0>         0.1151
     20 H2          7.6515    4.7908   -1.5089 H         1 <0>         0.1025
     21 H3          7.9850    2.6352    0.6014 H         1 <0>         0.1250
     22 H4          5.6248    3.9431   -0.9205 H         1 <0>         0.0772
     23 H5          5.6417    3.9336    0.8594 H         1 <0>         0.0820
     24 H6          3.7539    4.0997   -0.0122 H         1 <0>         0.1607
     25 H7          1.3044    3.9292    0.0102 H         1 <0>         0.1543
     26 H8          4.0916   -0.1591   -0.0382 H         1 <0>         0.1620
     27 H9         -0.8745   -0.6349    0.0067 H         1 <0>         0.2660
     28 H10        -0.4794    3.3677    1.6667 H         1 <0>         0.1375
     29 H11        -2.4768    4.8058    1.6725 H         1 <0>         0.1466
     30 H12        -4.2825    4.4142    0.0467 H         1 <0>         0.1443
     31 H13        -4.0910    2.5922   -1.5968 H         1 <0>         0.1470
     32 H14        -2.0920    1.1567   -1.6187 H         1 <0>         0.1388
     33 N2          1.2305   -0.4356   -0.0120 N.pl3     1 <0>        -0.4980
     34 H15         1.5107   -1.4233   -0.0200 H         1 <0>         0.4821
@<TRIPOS>BOND
     1    1    2 2
     2    1   19 1
     3    1   20 1
     4    2    3 1
     5    2   21 1
     6    3    4 1
     7    3   22 1
     8    3   23 1
     9    4    5 1
    10    5   10 ar
    11    5    6 ar
    12    6    7 ar
    13    6   24 1
    14    7    8 ar
    15    7   25 1
    16    8   12 1
    17    8    9 ar
    18    9   10 ar
    19    9   33 1
    20   10   26 1
    21   11   12 1
    22   11   27 1
    23   11   33 2
    24   12   13 1
    25   13   18 ar
    26   13   14 ar
    27   14   15 ar
    28   14   28 1
    29   15   16 ar
    30   15   29 1
    31   16   17 ar
    32   16   30 1
    33   17   18 ar
    34   17   31 1
    35   18   32 1
    36   33   34 1
@<TRIPOS>MOLECULE
ZINC03815797
   26    28     0     0     0
SMALL
USER_CHARGES

@<TRIPOS>ATOM
      1 C1          2.3721    9.1488   -3.9391 C.3       1 <0>         0.0269
      2 O1          3.2137    8.6916   -2.8786 O.3       1 <0>        -0.3148
      3 C2          2.8099    7.5816   -2.2048 C.ar      1 <0>         0.1218
      4 C3          1.6229    6.9483   -2.5634 C.ar      1 <0>        -0.1780
      5 C4          1.2022    5.8223   -1.8900 C.ar      1 <0>        -0.0671
      6 C5          1.9644    5.3146   -0.8469 C.ar      1 <0>         0.0176
      7 C6          3.1616    5.9503   -0.4765 C.ar      1 <0>         0.0881
      8 C7          3.5751    7.0946   -1.1643 C.ar      1 <0>        -0.1058
      9 N1          3.6867    5.2377    0.5529 N.2       1 <0>        -0.4908
     10 C8          2.9063    4.2344    0.8350 C.2       1 <0>         0.2771
     11 N2          1.8271    4.2343    0.0061 N.pl3     1 <0>        -0.4353
     12 C9          0.7703    3.3040    0.0117 C.2       1 <0>         0.0935
     13 C10         1.0291    1.9424    0.0027 C.2       1 <0>        -0.1678
     14 C11        -0.0126    1.0758    0.0080 C.2       1 <0>        -0.1501
     15 S1         -1.4154    2.1796    0.0194 S.3       1 <0>         0.0953
     16 C12        -0.5224    3.7253    0.0256 C.2       1 <0>        -0.1794
     17 H1          1.3859    9.3897   -3.5422 H         1 <0>         0.0559
     18 H2          2.8090   10.0390   -4.3916 H         1 <0>         0.1019
     19 H3          2.2794    8.3664   -4.6924 H         1 <0>         0.0558
     20 H4          1.0285    7.3418   -3.3747 H         1 <0>         0.1382
     21 H5          0.2809    5.3353   -2.1735 H         1 <0>         0.1264
     22 H6          4.4957    7.5887   -0.8907 H         1 <0>         0.1404
     23 H7          3.0891    3.5081    1.6130 H         1 <0>         0.2162
     24 H8          2.0456    1.5776   -0.0088 H         1 <0>         0.1446
     25 H9          0.0021   -0.0041    0.0020 H         1 <0>         0.1977
     26 H10        -0.9087    4.7338    0.0345 H         1 <0>         0.1919
@<TRIPOS>BOND
     1    1    2 1
     2    1   17 1
     3    1   18 1
     4    1   19 1
     5    2    3 1
     6    3    8 ar
     7    3    4 ar
     8    4    5 ar
     9    4   20 1
    10    5    6 ar
    11    5   21 1
    12    6   11 1
    13    6    7 ar
    14    7    8 ar
    15    7    9 1
    16    8   22 1
    17    9   10 2
    18   10   11 1
    19   10   23 1
    20   11   12 1
    21   12   16 2
    22   12   13 1
    23   13   14 2
    24   13   24 1
    25   14   15 1
    26   14   25 1
    27   15   16 1
    28   16   26 1
@<TRIPOS>MOLECULE
ZINC03815797
   27    29     0     0     0
SMALL
USER_CHARGES

@<TRIPOS>ATOM
      1 C1          2.3721    9.1488   -3.9391 C.3       1 <0>         0.0174
      2 O1          3.2137    8.6916   -2.8786 O.3       1 <0>        -0.2992
      3 C2          2.8099    7.5816   -2.2048 C.ar      1 <0>         0.1760
      4 C3          1.6229    6.9483   -2.5634 C.ar      1 <0>        -0.1529
      5 C4          1.2022    5.8223   -1.8900 C.ar      1 <0>        -0.0403
      6 C5          1.9644    5.3146   -0.8469 C.ar      1 <0>         0.0365
      7 C6          3.1616    5.9503   -0.4765 C.ar      1 <0>         0.0950
      8 C7          3.5751    7.0946   -1.1643 C.ar      1 <0>        -0.1290
      9 C8          2.9063    4.2344    0.8350 C.cat     1 <0>         0.3751
     10 N1          1.8271    4.2343    0.0061 N.pl3     1 <0>        -0.3598
     11 C9          0.7703    3.3040    0.0117 C.2       1 <0>         0.0481
     12 C10         1.0291    1.9424    0.0027 C.2       1 <0>        -0.1763
     13 C11        -0.0126    1.0758    0.0080 C.2       1 <0>        -0.1373
     14 S1         -1.4154    2.1796    0.0194 S.3       1 <0>         0.1733
     15 C12        -0.5224    3.7253    0.0256 C.2       1 <0>        -0.1627
     16 H1          1.3859    9.3897   -3.5422 H         1 <0>         0.0670
     17 H2          2.8090   10.0390   -4.3916 H         1 <0>         0.1167
     18 H3          2.2794    8.3664   -4.6924 H         1 <0>         0.0669
     19 H4          1.0285    7.3418   -3.3747 H         1 <0>         0.1616
     20 H5          0.2809    5.3353   -2.1735 H         1 <0>         0.1535
     21 H6          4.4957    7.5887   -0.8907 H         1 <0>         0.1618
     22 H7          3.0891    3.5081    1.6130 H         1 <0>         0.2653
     23 H8          2.0456    1.5776   -0.0088 H         1 <0>         0.1509
     24 H9          0.0021   -0.0041    0.0020 H         1 <0>         0.2078
     25 H10        -0.9087    4.7338    0.0345 H         1 <0>         0.2015
     26 N2          3.6879    5.2380    0.5536 N.pl3     1 <0>        -0.4988
     27 H11         4.5671    5.4570    1.0364 H         1 <0>         0.4819
@<TRIPOS>BOND
     1    1    2 1
     2    1   16 1
     3    1   17 1
     4    1   18 1
     5    2    3 1
     6    3    8 ar
     7    3    4 ar
     8    4    5 ar
     9    4   19 1
    10    5    6 ar
    11    5   20 1
    12    6   10 1
    13    6    7 ar
    14    7    8 ar
    15    7   26 1
    16    8   21 1
    17    9   10 1
    18    9   22 1
    19    9   26 2
    20   10   11 1
    21   11   15 2
    22   11   12 1
    23   12   13 2
    24   12   23 1
    25   13   14 1
    26   13   24 1
    27   14   15 1
    28   15   25 1
    29   26   27 1
@<TRIPOS>MOLECULE
ZINC03815798
   29    31     0     0     0
SMALL
USER_CHARGES

@<TRIPOS>ATOM
      1 C1          6.1232    3.9083   -0.0371 C.3       1 <0>        -0.1456
      2 S1          5.8253    2.1189   -0.0435 S.3       1 <0>        -0.1090
      3 C2          4.0689    1.9792   -0.0269 C.ar      1 <0>        -0.0916
      4 C3          3.2818    3.1301   -0.0128 C.ar      1 <0>        -0.1121
      5 C4          1.9078    3.0341    0.0002 C.ar      1 <0>        -0.0855
      6 C5          1.3005    1.7860   -0.0008 C.ar      1 <0>         0.0452
      7 C6          2.0854    0.6209   -0.0145 C.ar      1 <0>         0.0669
      8 C7          3.4784    0.7288   -0.0276 C.ar      1 <0>        -0.0418
      9 N1          1.2301   -0.4342   -0.0120 N.2       1 <0>        -0.4864
     10 C8          0.0021   -0.0041    0.0020 C.2       1 <0>         0.2743
     11 N2         -0.0164    1.3580    0.0095 N.pl3     1 <0>        -0.4469
     12 C9         -1.1555    2.1738    0.0196 C.ar      1 <0>         0.1225
     13 C10        -1.2691    3.1985    0.9497 C.ar      1 <0>        -0.1174
     14 C11        -2.3908    4.0043    0.9537 C.ar      1 <0>        -0.1001
     15 C12        -3.4051    3.7844    0.0399 C.ar      1 <0>        -0.1135
     16 C13        -3.2974    2.7611   -0.8839 C.ar      1 <0>        -0.0995
     17 C14        -2.1756    1.9556   -0.8967 C.ar      1 <0>        -0.1174
     18 H1          5.6674    4.3557   -0.9203 H         1 <0>         0.0844
     19 H2          5.6848    4.3464    0.8595 H         1 <0>         0.0844
     20 H3          7.1966    4.0979   -0.0467 H         1 <0>         0.1109
     21 H4          3.7522    4.1022   -0.0116 H         1 <0>         0.1330
     22 H5          1.3036    3.9292    0.0115 H         1 <0>         0.1270
     23 H6          4.0913   -0.1604   -0.0386 H         1 <0>         0.1385
     24 H7         -0.8745   -0.6349    0.0067 H         1 <0>         0.2178
     25 H8         -0.4792    3.3678    1.6666 H         1 <0>         0.1292
     26 H9         -2.4778    4.8043    1.6740 H         1 <0>         0.1339
     27 H10        -4.2829    4.4135    0.0474 H         1 <0>         0.1319
     28 H11        -4.0912    2.5919   -1.5964 H         1 <0>         0.1350
     29 H12        -2.0918    1.1569   -1.6189 H         1 <0>         0.1320
@<TRIPOS>BOND
     1    1    2 1
     2    1   18 1
     3    1   19 1
     4    1   20 1
     5    2    3 1
     6    3    8 ar
     7    3    4 ar
     8    4    5 ar
     9    4   21 1
    10    5    6 ar
    11    5   22 1
    12    6   11 1
    13    6    7 ar
    14    7    8 ar
    15    7    9 1
    16    8   23 1
    17    9   10 2
    18   10   11 1
    19   10   24 1
    20   11   12 1
    21   12   17 ar
    22   12   13 ar
    23   13   14 ar
    24   13   25 1
    25   14   15 ar
    26   14   26 1
    27   15   16 ar
    28   15   27 1
    29   16   17 ar
    30   16   28 1
    31   17   29 1
@<TRIPOS>MOLECULE
ZINC03815798
   30    32     0     0     0
SMALL
USER_CHARGES

@<TRIPOS>ATOM
      1 C1          6.1232    3.9083   -0.0371 C.3       1 <0>        -0.1588
      2 S1          5.8253    2.1189   -0.0435 S.3       1 <0>        -0.0546
      3 C2          4.0689    1.9792   -0.0269 C.ar      1 <0>        -0.0541
      4 C3          3.2818    3.1301   -0.0128 C.ar      1 <0>        -0.0887
      5 C4          1.9078    3.0341    0.0002 C.ar      1 <0>        -0.0582
      6 C5          1.3005    1.7860   -0.0008 C.ar      1 <0>         0.0625
      7 C6          2.0854    0.6209   -0.0145 C.ar      1 <0>         0.0749
      8 C7          3.4784    0.7288   -0.0276 C.ar      1 <0>        -0.0699
      9 C8          0.0021   -0.0041    0.0020 C.cat     1 <0>         0.3755
     10 N1         -0.0164    1.3580    0.0095 N.pl3     1 <0>        -0.3727
     11 C9         -1.1555    2.1738    0.0196 C.ar      1 <0>         0.0686
     12 C10        -1.2691    3.1985    0.9497 C.ar      1 <0>        -0.0956
     13 C11        -2.3908    4.0043    0.9537 C.ar      1 <0>        -0.0959
     14 C12        -3.4051    3.7844    0.0399 C.ar      1 <0>        -0.0821
     15 C13        -3.2974    2.7611   -0.8839 C.ar      1 <0>        -0.0958
     16 C14        -2.1756    1.9556   -0.8967 C.ar      1 <0>        -0.0992
     17 H1          5.6674    4.3557   -0.9203 H         1 <0>         0.0934
     18 H2          5.6848    4.3464    0.8595 H         1 <0>         0.0934
     19 H3          7.1966    4.0979   -0.0467 H         1 <0>         0.1241
     20 H4          3.7522    4.1022   -0.0116 H         1 <0>         0.1551
     21 H5          1.3036    3.9292    0.0115 H         1 <0>         0.1532
     22 H6          4.0913   -0.1604   -0.0386 H         1 <0>         0.1586
     23 H7         -0.8745   -0.6349    0.0067 H         1 <0>         0.2663
     24 H8         -0.4792    3.3678    1.6666 H         1 <0>         0.1374
     25 H9         -2.4778    4.8043    1.6740 H         1 <0>         0.1467
     26 H10        -4.2829    4.4135    0.0474 H         1 <0>         0.1444
     27 H11        -4.0912    2.5919   -1.5964 H         1 <0>         0.1471
     28 H12        -2.0918    1.1569   -1.6189 H         1 <0>         0.1388
     29 N2          1.2305   -0.4358   -0.0120 N.pl3     1 <0>        -0.4966
     30 H13         1.5106   -1.4235   -0.0200 H         1 <0>         0.4822
@<TRIPOS>BOND
     1    1    2 1
     2    1   17 1
     3    1   18 1
     4    1   19 1
     5    2    3 1
     6    3    8 ar
     7    3    4 ar
     8    4    5 ar
     9    4   20 1
    10    5    6 ar
    11    5   21 1
    12    6   10 1
    13    6    7 ar
    14    7    8 ar
    15    7   29 1
    16    8   22 1
    17    9   10 1
    18    9   23 1
    19    9   29 2
    20   10   11 1
    21   11   16 ar
    22   11   12 ar
    23   12   13 ar
    24   12   24 1
    25   13   14 ar
    26   13   25 1
    27   14   15 ar
    28   14   26 1
    29   15   16 ar
    30   15   27 1
    31   16   28 1
    32   29   30 1
@<TRIPOS>MOLECULE
ZINC03815799
   31    33     0     0     0
SMALL
USER_CHARGES

@<TRIPOS>ATOM
      1 C1          5.8341    8.0339   -4.6506 C.3       1 <0>         0.0365
      2 O1          5.1397    6.9542   -3.9721 O.3       1 <0>        -0.3546
      3 C2          5.7948    6.3425   -2.9661 C.2       1 <0>         0.5133
      4 O2          6.9156    6.7013   -2.6641 O.2       1 <0>        -0.5034
      5 C3          5.1511    5.2367   -2.2313 C.ar      1 <0>        -0.1356
      6 C4          3.8581    4.8238   -2.5816 C.ar      1 <0>        -0.0485
      7 C5          3.2527    3.8023   -1.9098 C.ar      1 <0>        -0.1172
      8 C6          3.9178    3.1569   -0.8732 C.ar      1 <0>         0.0810
      9 C7          5.2139    3.5621   -0.5041 C.ar      1 <0>         0.0327
     10 C8          5.8297    4.6060   -1.1923 C.ar      1 <0>         0.0166
     11 N1          5.5998    2.7659    0.5273 N.2       1 <0>        -0.4758
     12 C9          4.6481    1.9257    0.8100 C.2       1 <0>         0.2711
     13 N2          3.5855    2.1246   -0.0204 N.pl3     1 <0>        -0.4438
     14 C10         2.3808    1.4090   -0.0132 C.ar      1 <0>         0.1175
     15 C11         1.1691    2.0868    0.0021 C.ar      1 <0>        -0.1153
     16 C12        -0.0167    1.3786    0.0096 C.ar      1 <0>        -0.0998
     17 C13         0.0021   -0.0041    0.0020 C.ar      1 <0>        -0.1112
     18 C14         1.2072   -0.6819   -0.0127 C.ar      1 <0>        -0.0997
     19 C15         2.3963    0.0206   -0.0203 C.ar      1 <0>        -0.1153
     20 H1          6.0708    8.8205   -3.9342 H         1 <0>         0.0651
     21 H2          6.7561    7.6533   -5.0902 H         1 <0>         0.0651
     22 H3          5.1966    8.4384   -5.4369 H         1 <0>         0.1044
     23 H4          3.3375    5.3180   -3.3886 H         1 <0>         0.1481
     24 H5          2.2563    3.4911   -2.1868 H         1 <0>         0.1327
     25 H6          6.8260    4.9230   -0.9218 H         1 <0>         0.1495
     26 H7          4.6932    1.1791    1.5892 H         1 <0>         0.2204
     27 H8          1.1538    3.1667    0.0077 H         1 <0>         0.1308
     28 H9         -0.9595    1.9053    0.0170 H         1 <0>         0.1350
     29 H10        -0.9264   -0.5556    0.0080 H         1 <0>         0.1325
     30 H11         1.2187   -1.7619   -0.0186 H         1 <0>         0.1355
     31 H12         3.3373   -0.5094   -0.0322 H         1 <0>         0.1326
@<TRIPOS>BOND
     1    1    2 1
     2    1   20 1
     3    1   21 1
     4    1   22 1
     5    2    3 1
     6    3    4 2
     7    3    5 1
     8    5   10 ar
     9    5    6 ar
    10    6    7 ar
    11    6   23 1
    12    7    8 ar
    13    7   24 1
    14    8   13 1
    15    8    9 ar
    16    9   10 ar
    17    9   11 1
    18   10   25 1
    19   11   12 2
    20   12   13 1
    21   12   26 1
    22   13   14 1
    23   14   19 ar
    24   14   15 ar
    25   15   16 ar
    26   15   27 1
    27   16   17 ar
    28   16   28 1
    29   17   18 ar
    30   17   29 1
    31   18   19 ar
    32   18   30 1
    33   19   31 1
@<TRIPOS>MOLECULE
ZINC03815799
   32    34     0     0     0
SMALL
USER_CHARGES

@<TRIPOS>ATOM
      1 C1          5.8341    8.0339   -4.6506 C.3       1 <0>         0.0355
      2 O1          5.1397    6.9542   -3.9721 O.3       1 <0>        -0.3489
      3 C2          5.7948    6.3425   -2.9661 C.2       1 <0>         0.5052
      4 O2          6.9156    6.7013   -2.6641 O.2       1 <0>        -0.4846
      5 C3          5.1511    5.2367   -2.2313 C.ar      1 <0>        -0.0805
      6 C4          3.8581    4.8238   -2.5816 C.ar      1 <0>        -0.0201
      7 C5          3.2527    3.8023   -1.9098 C.ar      1 <0>        -0.0924
      8 C6          3.9178    3.1569   -0.8732 C.ar      1 <0>         0.1058
      9 C7          5.2139    3.5621   -0.5041 C.ar      1 <0>         0.0373
     10 C8          5.8297    4.6060   -1.1923 C.ar      1 <0>        -0.0082
     11 C9          4.6481    1.9257    0.8100 C.cat     1 <0>         0.3836
     12 N1          3.5855    2.1246   -0.0204 N.pl3     1 <0>        -0.3769
     13 C10         2.3808    1.4090   -0.0132 C.ar      1 <0>         0.0645
     14 C11         1.1691    2.0868    0.0021 C.ar      1 <0>        -0.0944
     15 C12        -0.0167    1.3786    0.0096 C.ar      1 <0>        -0.0951
     16 C13         0.0021   -0.0041    0.0020 C.ar      1 <0>        -0.0801
     17 C14         1.2072   -0.6819   -0.0127 C.ar      1 <0>        -0.0955
     18 C15         2.3963    0.0206   -0.0203 C.ar      1 <0>        -0.0979
     19 H1          6.0708    8.8205   -3.9342 H         1 <0>         0.0712
     20 H2          6.7561    7.6533   -5.0902 H         1 <0>         0.0711
     21 H3          5.1966    8.4384   -5.4369 H         1 <0>         0.1131
     22 H4          3.3375    5.3180   -3.3886 H         1 <0>         0.1721
     23 H5          2.2563    3.4911   -2.1868 H         1 <0>         0.1602
     24 H6          6.8260    4.9230   -0.9218 H         1 <0>         0.1703
     25 H7          4.6932    1.1791    1.5892 H         1 <0>         0.2700
     26 H8          1.1538    3.1667    0.0077 H         1 <0>         0.1387
     27 H9         -0.9595    1.9053    0.0170 H         1 <0>         0.1477
     28 H10        -0.9264   -0.5556    0.0080 H         1 <0>         0.1451
     29 H11         1.2187   -1.7619   -0.0186 H         1 <0>         0.1477
     30 H12         3.3373   -0.5094   -0.0322 H         1 <0>         0.1392
     31 N2          5.6006    2.7659    0.5277 N.pl3     1 <0>        -0.4889
     32 H13         6.5053    2.8195    1.0102 H         1 <0>         0.4852
@<TRIPOS>BOND
     1    1    2 1
     2    1   19 1
     3    1   20 1
     4    1   21 1
     5    2    3 1
     6    3    4 2
     7    3    5 1
     8    5   10 ar
     9    5    6 ar
    10    6    7 ar
    11    6   22 1
    12    7    8 ar
    13    7   23 1
    14    8   12 1
    15    8    9 ar
    16    9   10 ar
    17    9   31 1
    18   10   24 1
    19   11   12 1
    20   11   25 1
    21   11   31 2
    22   12   13 1
    23   13   18 ar
    24   13   14 ar
    25   14   15 ar
    26   14   26 1
    27   15   16 ar
    28   15   27 1
    29   16   17 ar
    30   16   28 1
    31   17   18 ar
    32   17   29 1
    33   18   30 1
    34   31   32 1
@<TRIPOS>MOLECULE
ZINC03815800
   30    32     0     0     0
SMALL
USER_CHARGES

@<TRIPOS>ATOM
      1 C1          7.1286    6.8613   -2.5228 C.3       1 <0>        -0.1943
      2 C2          5.7858    6.3407   -2.9664 C.2       1 <0>         0.3997
      3 O1          5.2333    6.8303   -3.9287 O.2       1 <0>        -0.4577
      4 C3          5.1456    5.2399   -2.2329 C.ar      1 <0>        -0.1793
      5 C4          3.8458    4.8330   -2.5743 C.ar      1 <0>        -0.0474
      6 C5          3.2423    3.8128   -1.9004 C.ar      1 <0>        -0.1174
      7 C6          3.9137    3.1606   -0.8712 C.ar      1 <0>         0.0779
      8 C7          5.2149    3.5585   -0.5108 C.ar      1 <0>         0.0307
      9 C8          5.8304    4.6012   -1.1996 C.ar      1 <0>        -0.0054
     10 N1          5.6047    2.7571    0.5155 N.2       1 <0>        -0.4787
     11 C9          4.6509    1.9210    0.8027 C.2       1 <0>         0.2699
     12 N2          3.5829    2.1279   -0.0192 N.pl3     1 <0>        -0.4442
     13 C10         2.3748    1.4183   -0.0049 C.ar      1 <0>         0.1177
     14 C11         1.1666    2.1021    0.0202 C.ar      1 <0>        -0.1157
     15 C12        -0.0226    1.3999    0.0334 C.ar      1 <0>        -0.0997
     16 C13        -0.0108    0.0172    0.0221 C.ar      1 <0>        -0.1114
     17 C14         1.1908   -0.6667   -0.0025 C.ar      1 <0>        -0.0997
     18 C15         2.3833    0.0299   -0.0162 C.ar      1 <0>        -0.1157
     19 H1          7.4743    6.2961   -1.7738 H         1 <0>         0.0749
     20 H2          7.8271    6.8236   -3.3587 H         1 <0>         0.0952
     21 H3          7.0246    7.8915   -2.1824 H         1 <0>         0.0976
     22 H4          3.3206    5.3316   -3.3755 H         1 <0>         0.1429
     23 H5          2.2420    3.5071   -2.1694 H         1 <0>         0.1295
     24 H6          6.8304    4.9124   -0.9356 H         1 <0>         0.1457
     25 H7          4.6978    1.1722    1.5795 H         1 <0>         0.2191
     26 H8          1.1568    3.1821    0.0290 H         1 <0>         0.1302
     27 H9         -0.9627    1.9312    0.0480 H         1 <0>         0.1349
     28 H10        -0.9420   -0.5298    0.0328 H         1 <0>         0.1326
     29 H11         1.1968   -1.7467   -0.0112 H         1 <0>         0.1356
     30 H12         3.3215   -0.5047   -0.0360 H         1 <0>         0.1323
@<TRIPOS>BOND
     1    1    2 1
     2    1   19 1
     3    1   20 1
     4    1   21 1
     5    2    3 2
     6    2    4 1
     7    4    9 ar
     8    4    5 ar
     9    5    6 ar
    10    5   22 1
    11    6    7 ar
    12    6   23 1
    13    7   12 1
    14    7    8 ar
    15    8    9 ar
    16    8   10 1
    17    9   24 1
    18   10   11 2
    19   11   12 1
    20   11   25 1
    21   12   13 1
    22   13   18 ar
    23   13   14 ar
    24   14   15 ar
    25   14   26 1
    26   15   16 ar
    27   15   27 1
    28   16   17 ar
    29   16   28 1
    30   17   18 ar
    31   17   29 1
    32   18   30 1
@<TRIPOS>MOLECULE
ZINC03815800
   31    33     0     0     0
SMALL
USER_CHARGES

@<TRIPOS>ATOM
      1 C1          7.1286    6.8613   -2.5228 C.3       1 <0>        -0.1947
      2 C2          5.7858    6.3407   -2.9664 C.2       1 <0>         0.3896
      3 O1          5.2333    6.8303   -3.9287 O.2       1 <0>        -0.4255
      4 C3          5.1456    5.2399   -2.2329 C.ar      1 <0>        -0.1234
      5 C4          3.8458    4.8330   -2.5743 C.ar      1 <0>        -0.0222
      6 C5          3.2423    3.8128   -1.9004 C.ar      1 <0>        -0.0910
      7 C6          3.9137    3.1606   -0.8712 C.ar      1 <0>         0.1005
      8 C7          5.2149    3.5585   -0.5108 C.ar      1 <0>         0.0368
      9 C8          5.8304    4.6012   -1.1996 C.ar      1 <0>        -0.0305
     10 C9          4.6509    1.9210    0.8027 C.cat     1 <0>         0.3805
     11 N1          3.5829    2.1279   -0.0192 N.pl3     1 <0>        -0.3759
     12 C10         2.3748    1.4183   -0.0049 C.ar      1 <0>         0.0644
     13 C11         1.1666    2.1021    0.0202 C.ar      1 <0>        -0.0946
     14 C12        -0.0226    1.3999    0.0334 C.ar      1 <0>        -0.0951
     15 C13        -0.0108    0.0172    0.0221 C.ar      1 <0>        -0.0802
     16 C14         1.1908   -0.6667   -0.0025 C.ar      1 <0>        -0.0956
     17 C15         2.3833    0.0299   -0.0162 C.ar      1 <0>        -0.0982
     18 H1          7.4743    6.2961   -1.7738 H         1 <0>         0.0731
     19 H2          7.8271    6.8236   -3.3587 H         1 <0>         0.1051
     20 H3          7.0246    7.8915   -2.1824 H         1 <0>         0.1070
     21 H4          3.3206    5.3316   -3.3755 H         1 <0>         0.1665
     22 H5          2.2420    3.5071   -2.1694 H         1 <0>         0.1569
     23 H6          6.8304    4.9124   -0.9356 H         1 <0>         0.1667
     24 H7          4.6978    1.1722    1.5795 H         1 <0>         0.2687
     25 H8          1.1568    3.1821    0.0290 H         1 <0>         0.1382
     26 H9         -0.9627    1.9312    0.0480 H         1 <0>         0.1477
     27 H10        -0.9420   -0.5298    0.0328 H         1 <0>         0.1452
     28 H11         1.1968   -1.7467   -0.0112 H         1 <0>         0.1478
     29 H12         3.3215   -0.5047   -0.0360 H         1 <0>         0.1390
     30 N2          5.6054    2.7571    0.5159 N.pl3     1 <0>        -0.4908
     31 H13         6.5140    2.8046    0.9917 H         1 <0>         0.4838
@<TRIPOS>BOND
     1    1    2 1
     2    1   18 1
     3    1   19 1
     4    1   20 1
     5    2    3 2
     6    2    4 1
     7    4    9 ar
     8    4    5 ar
     9    5    6 ar
    10    5   21 1
    11    6    7 ar
    12    6   22 1
    13    7   11 1
    14    7    8 ar
    15    8    9 ar
    16    8   30 1
    17    9   23 1
    18   10   11 1
    19   10   24 1
    20   10   30 2
    21   11   12 1
    22   12   17 ar
    23   12   13 ar
    24   13   14 ar
    25   13   25 1
    26   14   15 ar
    27   14   26 1
    28   15   16 ar
    29   15   27 1
    30   16   17 ar
    31   16   28 1
    32   17   29 1
    33   30   31 1
@<TRIPOS>MOLECULE
ZINC03827478
   70    74     0     0     0
SMALL
USER_CHARGES

@<TRIPOS>ATOM
      1 C1          4.3982    4.1130   -0.0333 C.3       1 <0>        -0.1196
      2 C2          3.0768    3.3895   -0.0738 C.ar      1 <0>        -0.1218
      3 C3          3.0000    2.0696    0.3277 C.ar      1 <0>        -0.0759
      4 C4          1.7895    1.4048    0.2980 C.ar      1 <0>        -0.1409
      5 C5          0.6469    2.0582   -0.1479 C.ar      1 <0>         0.1443
      6 C6          0.7206    3.3833   -0.5521 C.ar      1 <0>        -0.1476
      7 C7          1.9371    4.0503   -0.5152 C.ar      1 <0>         0.1913
      8 N1          2.0158    5.3856   -0.9221 N.pl3     1 <0>        -0.6315
      9 C8          1.0849    5.8941   -1.8133 C.ar      1 <0>         0.5636
     10 N2          0.2078    5.0713   -2.3704 N.ar      1 <0>        -0.5598
     11 C9         -0.6971    5.5183   -3.2264 C.ar      1 <0>         0.1893
     12 C10        -0.7238    6.8656   -3.5411 C.ar      1 <0>        -0.2675
     13 C11         0.2131    7.7087   -2.9381 C.ar      1 <0>         0.2735
     14 N3          1.0908    7.1900   -2.0822 N.ar      1 <0>        -0.5553
     15 C12         0.2253    9.1602   -3.2421 C.ar      1 <0>        -0.1248
     16 C13         1.1626   10.0045   -2.6391 C.ar      1 <0>        -0.0257
     17 C14         1.1323   11.3514   -2.9560 C.ar      1 <0>        -0.1769
     18 C15         0.1846   11.8148   -3.8507 C.ar      1 <0>         0.1225
     19 N4         -0.6871   10.9940   -4.4039 N.ar      1 <0>        -0.4837
     20 C16        -0.6933    9.7039   -4.1376 C.ar      1 <0>         0.1350
     21 N5         -0.5769    1.3824   -0.1836 N.am      1 <0>        -0.6528
     22 C17        -0.6036    0.0448   -0.3462 C.2       1 <0>         0.5421
     23 O1          0.4281   -0.5627   -0.5565 O.2       1 <0>        -0.4944
     24 C18        -1.8875   -0.6837   -0.2686 C.ar      1 <0>        -0.0781
     25 C19        -3.0733    0.0101   -0.0214 C.ar      1 <0>        -0.0818
     26 C20        -4.2688   -0.6752    0.0445 C.ar      1 <0>        -0.0926
     27 C21        -4.2926   -2.0485   -0.1224 C.ar      1 <0>        -0.1587
     28 C22        -3.1201   -2.7429   -0.3625 C.ar      1 <0>        -0.1023
     29 C23        -1.9186   -2.0691   -0.4365 C.ar      1 <0>        -0.0541
     30 C24        -5.6014   -2.7912   -0.0429 C.3       1 <0>         0.0492
     31 C25        -4.8583   -4.1957    1.7848 C.3       1 <0>        -0.0352
     32 C26        -5.1004   -4.5371    3.2569 C.3       1 <0>        -0.0253
     33 C27        -7.4568   -4.0579    2.9805 C.3       1 <0>        -0.0266
     34 C28        -7.2147   -3.7165    1.5083 C.3       1 <0>        -0.0270
     35 C29        -6.7137   -5.4624    4.8081 C.3       1 <0>        -0.0461
     36 H1          4.5207    4.5917    0.9383 H         1 <0>         0.0751
     37 H2          5.2075    3.4003   -0.1918 H         1 <0>         0.0763
     38 H3          4.4220    4.8701   -0.8170 H         1 <0>         0.0644
     39 H4          3.8874    1.5582    0.6704 H         1 <0>         0.1337
     40 H5          1.7319    0.3747    0.6173 H         1 <0>         0.1376
     41 H6         -0.1669    3.8948   -0.8945 H         1 <0>         0.1533
     42 H7          2.7221    5.9559   -0.5805 H         1 <0>         0.4275
     43 H8         -1.4068    4.8388   -3.6748 H         1 <0>         0.1729
     44 H9         -1.4517    7.2562   -4.2369 H         1 <0>         0.1522
     45 H10         1.8914    9.6155   -1.9434 H         1 <0>         0.1467
     46 H11         1.8411   12.0332   -2.5097 H         1 <0>         0.1449
     47 H12         0.1584   12.8652   -4.1005 H         1 <0>         0.1647
     48 H13        -1.4200    9.0626   -4.6141 H         1 <0>         0.1614
     49 H14        -1.4067    1.8769   -0.0954 H         1 <0>         0.4079
     50 H15        -3.0554    1.0814    0.1138 H         1 <0>         0.1434
     51 H16        -5.1876   -0.1391    0.2309 H         1 <0>         0.1416
     52 H17        -3.1457   -3.8147   -0.4926 H         1 <0>         0.1406
     53 H18        -1.0042   -2.6122   -0.6243 H         1 <0>         0.1553
     54 H19        -6.4092   -2.1408   -0.3782 H         1 <0>         0.1505
     55 H20        -5.5574   -3.6743   -0.6804 H         1 <0>         0.1487
     56 H21        -4.9568   -5.0980    1.1812 H         1 <0>         0.1582
     57 H22        -3.8549   -3.7865    1.6666 H         1 <0>         0.1734
     58 H23        -4.9751   -3.6402    3.8636 H         1 <0>         0.1552
     59 H24        -4.3858   -5.2954    3.5770 H         1 <0>         0.1754
     60 H25        -7.3583   -3.1557    3.5840 H         1 <0>         0.1553
     61 H26        -8.4603   -4.4667    3.0987 H         1 <0>         0.1758
     62 H27        -7.9293   -2.9581    1.1886 H         1 <0>         0.1755
     63 H28        -7.3401   -4.6131    0.9013 H         1 <0>         0.1574
     64 H29        -7.7083   -5.9014    4.8861 H         1 <0>         0.1362
     65 H30        -5.9672   -6.1981    5.1073 H         1 <0>         0.1361
     66 H31        -6.6484   -4.5922    5.4612 H         1 <0>         0.1325
     67 N6         -5.8454   -3.1796    1.3627 N.4       1 <0>        -0.4058
     68 H32        -5.7469   -2.3502    1.9599 H         1 <0>         0.4368
     69 N7         -6.4699   -5.0740    3.4025 N.4       1 <0>        -0.4063
     70 H33        -6.5686   -5.9033    2.8053 H         1 <0>         0.4405
@<TRIPOS>BOND
     1    1    2 1
     2    1   36 1
     3    1   37 1
     4    1   38 1
     5    2    7 ar
     6    2    3 ar
     7    3    4 ar
     8    3   39 1
     9    4    5 ar
    10    4   40 1
    11    5    6 ar
    12    5   21 1
    13    6    7 ar
    14    6   41 1
    15    7    8 1
    16    8    9 1
    17    8   42 1
    18    9   14 ar
    19    9   10 ar
    20   10   11 ar
    21   11   12 ar
    22   11   43 1
    23   12   13 ar
    24   12   44 1
    25   13   14 ar
    26   13   15 1
    27   15   20 ar
    28   15   16 ar
    29   16   17 ar
    30   16   45 1
    31   17   18 ar
    32   17   46 1
    33   18   19 ar
    34   18   47 1
    35   19   20 ar
    36   20   48 1
    37   21   22 am
    38   21   49 1
    39   22   23 2
    40   22   24 1
    41   24   29 ar
    42   24   25 ar
    43   25   26 ar
    44   25   50 1
    45   26   27 ar
    46   26   51 1
    47   27   28 ar
    48   27   30 1
    49   28   29 ar
    50   28   52 1
    51   29   53 1
    52   30   54 1
    53   30   55 1
    54   30   67 1
    55   31   32 1
    56   31   56 1
    57   31   57 1
    58   31   67 1
    59   32   58 1
    60   32   59 1
    61   32   69 1
    62   33   34 1
    63   33   60 1
    64   33   61 1
    65   33   69 1
    66   34   62 1
    67   34   63 1
    68   34   67 1
    69   35   64 1
    70   35   65 1
    71   35   66 1
    72   35   69 1
    73   67   68 1
    74   69   70 1
@<TRIPOS>MOLECULE
ZINC03832218
   30    32     0     0     0
SMALL
USER_CHARGES

@<TRIPOS>ATOM
      1 C1          2.4924    1.0225   -0.0168 C.3       1 <0>        -0.1186
      2 C2          1.1898    1.7801    0.0003 C.ar      1 <0>        -0.0607
      3 C3         -0.0126    1.0758    0.0080 C.ar      1 <0>        -0.1159
      4 C4         -1.2054    1.7317    0.0172 C.ar      1 <0>        -0.0600
      5 C5         -1.2255    3.1366    0.0306 C.ar      1 <0>        -0.0986
      6 C6         -2.4378    3.8483    0.0460 C.ar      1 <0>        -0.0513
      7 C7         -2.3790    5.2339    0.0528 C.ar      1 <0>        -0.0847
      8 C8         -1.1287    5.8733    0.0443 C.ar      1 <0>         0.1439
      9 N1         -0.0112    5.1925    0.0296 N.ar      1 <0>        -0.4705
     10 C9         -0.0037    3.8551    0.0228 C.ar      1 <0>         0.1324
     11 C10         1.2072    3.1410    0.0074 C.ar      1 <0>        -0.1031
     12 C11        -3.6277    6.0346    0.0685 C.2       1 <0>        -0.0776
     13 C12        -3.5812    7.4255    0.0755 C.2       1 <0>        -0.1527
     14 C13        -4.7407    8.1207    0.0894 C.2       1 <0>        -0.1653
     15 S1         -5.9622    6.8194    0.0932 S.3       1 <0>         0.0542
     16 C14        -4.8504    5.4231    0.0707 C.2       1 <0>        -0.1690
     17 C15        -2.4971    0.9553    0.0192 C.3       1 <0>        -0.1201
     18 H1          2.7965    0.8457   -1.0485 H         1 <0>         0.0755
     19 H2          3.2590    1.6062    0.4930 H         1 <0>         0.0707
     20 H3          2.3640    0.0676    0.4929 H         1 <0>         0.0703
     21 H4          0.0021   -0.0041    0.0020 H         1 <0>         0.1289
     22 H5         -3.3862    3.3316    0.0519 H         1 <0>         0.1407
     23 H6         -1.0885    6.9526    0.0501 H         1 <0>         0.1604
     24 H7          2.1483    3.6707    0.0009 H         1 <0>         0.1356
     25 H8         -2.6328    7.9421    0.0696 H         1 <0>         0.1395
     26 H9         -4.8898    9.1903    0.0964 H         1 <0>         0.1901
     27 H10        -5.0833    4.3686    0.0622 H         1 <0>         0.1865
     28 H11        -2.8035    0.7625    1.0473 H         1 <0>         0.0766
     29 H12        -3.2694    1.5336   -0.4878 H         1 <0>         0.0688
     30 H13        -2.3524    0.0081   -0.5004 H         1 <0>         0.0739
@<TRIPOS>BOND
     1    1    2 1
     2    1   18 1
     3    1   19 1
     4    1   20 1
     5    2   11 ar
     6    2    3 ar
     7    3    4 ar
     8    3   21 1
     9    4    5 ar
    10    4   17 1
    11    5   10 ar
    12    5    6 ar
    13    6    7 ar
    14    6   22 1
    15    7    8 ar
    16    7   12 1
    17    8    9 ar
    18    8   23 1
    19    9   10 ar
    20   10   11 ar
    21   11   24 1
    22   12   16 2
    23   12   13 1
    24   13   14 2
    25   13   25 1
    26   14   15 1
    27   14   26 1
    28   15   16 1
    29   16   27 1
    30   17   28 1
    31   17   29 1
    32   17   30 1
@<TRIPOS>MOLECULE
ZINC03832219
   51    54     0     0     0
SMALL
USER_CHARGES

@<TRIPOS>ATOM
      1 C1          5.0885    4.1036   -0.3717 C.3       1 <0>        -0.1225
      2 C2          3.7898    3.3396   -0.3986 C.ar      1 <0>        -0.0548
      3 C3          2.6849    3.8815   -1.0310 C.ar      1 <0>        -0.1286
      4 C4          1.4931    3.1873   -1.0593 C.ar      1 <0>        -0.0511
      5 C5          1.4034    1.9356   -0.4480 C.ar      1 <0>        -0.1453
      6 C6          2.5204    1.3971    0.1929 C.ar      1 <0>        -0.0806
      7 C7          3.7078    2.0992    0.2089 C.ar      1 <0>        -0.1285
      8 C8          0.1294    1.1864   -0.4739 C.2       1 <0>         0.5611
      9 O1         -0.8417    1.6580   -1.0328 O.2       1 <0>        -0.5128
     10 N1          0.0461   -0.0219    0.1172 N.am      1 <0>        -0.6646
     11 C9         -1.1846   -0.6822    0.1882 C.ar      1 <0>         0.1637
     12 C10        -2.3665    0.0487    0.1998 C.ar      1 <0>        -0.1428
     13 C11        -3.5828   -0.6030    0.2636 C.ar      1 <0>        -0.0760
     14 C12        -3.6283   -1.9825    0.3285 C.ar      1 <0>        -0.1352
     15 C13        -2.4502   -2.7190    0.3230 C.ar      1 <0>         0.1852
     16 C14        -1.2267   -2.0675    0.2528 C.ar      1 <0>        -0.1533
     17 N2         -2.4971   -4.1148    0.3878 N.pl3     1 <0>        -0.6301
     18 C15        -1.4506   -4.8673   -0.1200 C.ar      1 <0>         0.5648
     19 N3         -0.4760   -4.2564   -0.7784 N.ar      1 <0>        -0.5529
     20 C16         0.5409   -4.9399   -1.2786 C.ar      1 <0>         0.1929
     21 C17         0.5825   -6.3127   -1.1089 C.ar      1 <0>        -0.2701
     22 C18        -0.4589   -6.9289   -0.4105 C.ar      1 <0>         0.2656
     23 N4         -1.4471   -6.1772    0.0695 N.ar      1 <0>        -0.5588
     24 C19        -0.4601   -8.3972   -0.2016 C.ar      1 <0>        -0.1160
     25 C20        -1.5019   -9.0145    0.4972 C.ar      1 <0>        -0.0277
     26 C21        -1.4564  -10.3876    0.6652 C.ar      1 <0>        -0.1781
     27 C22        -0.3917  -11.0984    0.1414 C.ar      1 <0>         0.1166
     28 N5          0.5771  -10.4882   -0.5135 N.ar      1 <0>        -0.4846
     29 C23         0.5741   -9.1846   -0.7035 C.ar      1 <0>         0.1331
     30 C24        -4.9573   -2.6891    0.4048 C.3       1 <0>        -0.1130
     31 H1          5.1187    4.7377    0.5144 H         1 <0>         0.0768
     32 H2          5.9223    3.4021   -0.3451 H         1 <0>         0.0708
     33 H3          5.1638    4.7238   -1.2649 H         1 <0>         0.0713
     34 H4          2.7556    4.8502   -1.5033 H         1 <0>         0.1319
     35 H5          0.6314    3.6113   -1.5536 H         1 <0>         0.1382
     36 H6          2.4564    0.4310    0.6716 H         1 <0>         0.1253
     37 H7          4.5742    1.6815    0.7002 H         1 <0>         0.1305
     38 H8          0.8398   -0.4335    0.4935 H         1 <0>         0.4093
     39 H9         -2.3342    1.1272    0.1544 H         1 <0>         0.1418
     40 H10        -4.5000   -0.0329    0.2680 H         1 <0>         0.1302
     41 H11        -0.3095   -2.6376    0.2487 H         1 <0>         0.1516
     42 H12        -3.2623   -4.5563    0.7883 H         1 <0>         0.4246
     43 H13         1.3295   -4.4318   -1.8137 H         1 <0>         0.1748
     44 H14         1.4008   -6.8941   -1.5074 H         1 <0>         0.1506
     45 H15        -2.3212   -8.4347    0.8960 H         1 <0>         0.1467
     46 H16        -2.2439  -10.8985    1.1993 H         1 <0>         0.1425
     47 H17        -0.3531  -12.1700    0.2704 H         1 <0>         0.1619
     48 H18         1.3830   -8.7214   -1.2490 H         1 <0>         0.1625
     49 H19        -5.2436   -2.8126    1.4492 H         1 <0>         0.0702
     50 H20        -5.7133   -2.0977   -0.1117 H         1 <0>         0.0724
     51 H21        -4.8760   -3.6679   -0.0679 H         1 <0>         0.0603
@<TRIPOS>BOND
     1    1    2 1
     2    1   31 1
     3    1   32 1
     4    1   33 1
     5    2    7 ar
     6    2    3 ar
     7    3    4 ar
     8    3   34 1
     9    4    5 ar
    10    4   35 1
    11    5    6 ar
    12    5    8 1
    13    6    7 ar
    14    6   36 1
    15    7   37 1
    16    8    9 2
    17    8   10 am
    18   10   11 1
    19   10   38 1
    20   11   16 ar
    21   11   12 ar
    22   12   13 ar
    23   12   39 1
    24   13   14 ar
    25   13   40 1
    26   14   15 ar
    27   14   30 1
    28   15   16 ar
    29   15   17 1
    30   16   41 1
    31   17   18 1
    32   17   42 1
    33   18   23 ar
    34   18   19 ar
    35   19   20 ar
    36   20   21 ar
    37   20   43 1
    38   21   22 ar
    39   21   44 1
    40   22   23 ar
    41   22   24 1
    42   24   29 ar
    43   24   25 ar
    44   25   26 ar
    45   25   45 1
    46   26   27 ar
    47   26   46 1
    48   27   28 ar
    49   27   47 1
    50   28   29 ar
    51   29   48 1
    52   30   49 1
    53   30   50 1
    54   30   51 1
@<TRIPOS>MOLECULE
ZINC03832221
   48    51     0     0     0
SMALL
USER_CHARGES

@<TRIPOS>ATOM
      1 C1          4.4023    4.1060    0.0310 C.3       1 <0>        -0.1135
      2 C2          3.0724    3.3972    0.0236 C.ar      1 <0>        -0.1336
      3 C3          3.0196    2.0309   -0.1758 C.ar      1 <0>        -0.0760
      4 C4          1.8030    1.3766   -0.1776 C.ar      1 <0>        -0.1415
      5 C5          0.6269    2.0927    0.0097 C.ar      1 <0>         0.1618
      6 C6          0.6763    3.4647    0.2097 C.ar      1 <0>        -0.1520
      7 C7          1.9006    4.1183    0.2167 C.ar      1 <0>         0.1855
      8 N1          1.9548    5.5008    0.4175 N.pl3     1 <0>        -0.6303
      9 C8          0.8605    6.2899    0.1023 C.ar      1 <0>         0.5646
     10 N2         -0.1783    5.7388   -0.5091 N.ar      1 <0>        -0.5532
     11 C9         -1.2424    6.4586   -0.8265 C.ar      1 <0>         0.1929
     12 C10        -1.2660    7.8064   -0.5133 C.ar      1 <0>        -0.2697
     13 C11        -0.1565    8.3594    0.1311 C.ar      1 <0>         0.2659
     14 N3          0.8772    7.5736    0.4243 N.ar      1 <0>        -0.5586
     15 C12        -0.1332    9.7986    0.4884 C.ar      1 <0>        -0.1164
     16 C13         0.9767   10.3527    1.1332 C.ar      1 <0>        -0.0276
     17 C14         0.9493   11.7010    1.4448 C.ar      1 <0>        -0.1781
     18 C15        -0.1647   12.4500    1.1113 C.ar      1 <0>         0.1169
     19 N4         -1.1971   11.8994    0.5025 N.ar      1 <0>        -0.4845
     20 C16        -1.2148   10.6218    0.1817 C.ar      1 <0>         0.1332
     21 N5         -0.6047    1.4302    0.0024 N.am      1 <0>        -0.6630
     22 C17        -0.7542    0.2934   -0.7058 C.2       1 <0>         0.5609
     23 O1          0.1504   -0.1053   -1.4135 O.2       1 <0>        -0.5084
     24 C18        -2.0175   -0.4684   -0.6223 C.ar      1 <0>        -0.1339
     25 C19        -3.0560   -0.0160    0.1940 C.ar      1 <0>        -0.0728
     26 C20        -4.2346   -0.7284    0.2638 C.ar      1 <0>        -0.1167
     27 C21        -4.3853   -1.8965   -0.4653 C.ar      1 <0>        -0.0088
     28 C22        -3.3565   -2.3533   -1.2725 C.ar      1 <0>        -0.1166
     29 C23        -2.1753   -1.6465   -1.3549 C.ar      1 <0>        -0.0428
     30 Cl1        -5.8698   -2.7912   -0.3676 Cl        1 <0>        -0.0567
     31 H1          4.7974    4.1264    1.0466 H         1 <0>         0.0706
     32 H2          5.0993    3.5776   -0.6195 H         1 <0>         0.0728
     33 H3          4.2720    5.1266   -0.3288 H         1 <0>         0.0605
     34 H4          3.9319    1.4726   -0.3257 H         1 <0>         0.1307
     35 H5          1.7656    0.3079   -0.3289 H         1 <0>         0.1413
     36 H6         -0.2360    4.0228    0.3600 H         1 <0>         0.1520
     37 H7          2.7584    5.9076    0.7774 H         1 <0>         0.4248
     38 H8         -2.0833    5.9993   -1.3249 H         1 <0>         0.1749
     39 H9         -2.1219    8.4165   -0.7615 H         1 <0>         0.1508
     40 H10         1.8334    9.7441    1.3822 H         1 <0>         0.1467
     41 H11         1.7889   12.1633    1.9425 H         1 <0>         0.1425
     42 H12        -0.1894   13.5024    1.3529 H         1 <0>         0.1620
     43 H13        -2.0768   10.2080   -0.3203 H         1 <0>         0.1625
     44 H14        -1.3525    1.7911    0.5039 H         1 <0>         0.4096
     45 H15        -2.9380    0.8922    0.7664 H         1 <0>         0.1357
     46 H16        -5.0403   -0.3772    0.8914 H         1 <0>         0.1428
     47 H17        -3.4798   -3.2647   -1.8387 H         1 <0>         0.1442
     48 H18        -1.3741   -2.0033   -1.9851 H         1 <0>         0.1488
@<TRIPOS>BOND
     1    1    2 1
     2    1   31 1
     3    1   32 1
     4    1   33 1
     5    2    7 ar
     6    2    3 ar
     7    3    4 ar
     8    3   34 1
     9    4    5 ar
    10    4   35 1
    11    5    6 ar
    12    5   21 1
    13    6    7 ar
    14    6   36 1
    15    7    8 1
    16    8    9 1
    17    8   37 1
    18    9   14 ar
    19    9   10 ar
    20   10   11 ar
    21   11   12 ar
    22   11   38 1
    23   12   13 ar
    24   12   39 1
    25   13   14 ar
    26   13   15 1
    27   15   20 ar
    28   15   16 ar
    29   16   17 ar
    30   16   40 1
    31   17   18 ar
    32   17   41 1
    33   18   19 ar
    34   18   42 1
    35   19   20 ar
    36   20   43 1
    37   21   22 am
    38   21   44 1
    39   22   23 2
    40   22   24 1
    41   24   29 ar
    42   24   25 ar
    43   25   26 ar
    44   25   45 1
    45   26   27 ar
    46   26   46 1
    47   27   28 ar
    48   27   30 1
    49   28   29 ar
    50   28   47 1
    51   29   48 1
@<TRIPOS>MOLECULE
ZINC03832225
   54    58     0     0     0
SMALL
USER_CHARGES

@<TRIPOS>ATOM
      1 C1          4.9014   -3.9973    0.1390 C.3       1 <0>        -0.1131
      2 C2          3.5916   -4.7425    0.1406 C.ar      1 <0>        -0.1346
      3 C3          3.5793   -6.1163    0.2892 C.ar      1 <0>        -0.0765
      4 C4          2.3812   -6.8038    0.2850 C.ar      1 <0>        -0.1418
      5 C5          1.1834   -6.1147    0.1370 C.ar      1 <0>         0.1632
      6 C6          1.1919   -4.7348   -0.0066 C.ar      1 <0>        -0.1527
      7 C7          2.3973   -4.0471   -0.0020 C.ar      1 <0>         0.1850
      8 N1          2.4102   -2.6565   -0.1464 N.pl3     1 <0>        -0.6303
      9 C8          1.3626   -2.0170   -0.7891 C.ar      1 <0>         0.5647
     10 N2          0.4237   -2.7458   -1.3754 N.ar      1 <0>        -0.5528
     11 C9         -0.5929   -2.1727   -1.9995 C.ar      1 <0>         0.1930
     12 C10        -0.6722   -0.7916   -2.0375 C.ar      1 <0>        -0.2701
     13 C11         0.3322   -0.0498   -1.4105 C.ar      1 <0>         0.2656
     14 N3          1.3279   -0.6941   -0.8060 N.ar      1 <0>        -0.5588
     15 C12         0.2928    1.4327   -1.4237 C.ar      1 <0>        -0.1160
     16 C13         1.2976    2.1756   -0.7965 C.ar      1 <0>        -0.0277
     17 C14         1.2153    3.5566   -0.8376 C.ar      1 <0>        -0.1782
     18 C15         0.1517    4.1519   -1.4915 C.ar      1 <0>         0.1166
     19 N4         -0.7813    3.4245   -2.0747 N.ar      1 <0>        -0.4846
     20 C16        -0.7429    2.1078   -2.0662 C.ar      1 <0>         0.1331
     21 N5         -0.0290   -6.8116    0.1324 N.am      1 <0>        -0.6638
     22 C17        -0.0686   -8.0923   -0.2855 C.2       1 <0>         0.5612
     23 O1          0.9287   -8.6121   -0.7473 O.2       1 <0>        -0.5132
     24 C18        -1.3239   -8.8645   -0.1823 C.ar      1 <0>        -0.1403
     25 C19        -2.4730   -8.2596    0.3583 C.ar      1 <0>        -0.0933
     26 C20        -3.6394   -8.9465    0.4580 C.ar      1 <0>        -0.1064
     27 C21        -3.7072  -10.2848    0.0289 C.ar      1 <0>        -0.0320
     28 C22        -4.9014  -11.0178    0.1286 C.ar      1 <0>        -0.1135
     29 C23        -4.9367  -12.3114   -0.2944 C.ar      1 <0>        -0.1019
     30 C24        -3.8037  -12.9238   -0.8268 C.ar      1 <0>        -0.1178
     31 C25        -2.6290  -12.2460   -0.9388 C.ar      1 <0>        -0.0947
     32 C26        -2.5541  -10.9078   -0.5124 C.ar      1 <0>        -0.0646
     33 C27        -1.3587  -10.1803   -0.6133 C.ar      1 <0>        -0.0258
     34 H1          5.1577   -3.7107    1.1590 H         1 <0>         0.0702
     35 H2          5.6841   -4.6391   -0.2655 H         1 <0>         0.0724
     36 H3          4.8100   -3.1031   -0.4775 H         1 <0>         0.0604
     37 H4          4.5088   -6.6541    0.4040 H         1 <0>         0.1302
     38 H5          2.3753   -7.8779    0.3972 H         1 <0>         0.1415
     39 H6          0.2624   -4.1971   -0.1221 H         1 <0>         0.1519
     40 H7          3.1527   -2.1394    0.2033 H         1 <0>         0.4247
     41 H8         -1.3527   -2.7763   -2.4736 H         1 <0>         0.1748
     42 H9         -1.4915   -0.2987   -2.5397 H         1 <0>         0.1506
     43 H10         2.1168    1.6844   -0.2926 H         1 <0>         0.1467
     44 H11         1.9736    4.1629   -0.3644 H         1 <0>         0.1424
     45 H12         0.0844    5.2293   -1.5255 H         1 <0>         0.1619
     46 H13        -1.5233    1.5465   -2.5585 H         1 <0>         0.1625
     47 H14        -0.8415   -6.3732    0.4300 H         1 <0>         0.4097
     48 H15        -2.4279   -7.2341    0.6939 H         1 <0>         0.1254
     49 H16        -4.5144   -8.4671    0.8715 H         1 <0>         0.1345
     50 H17        -5.7879  -10.5571    0.5389 H         1 <0>         0.1309
     51 H18        -5.8567  -12.8716   -0.2158 H         1 <0>         0.1270
     52 H19        -3.8587  -13.9513   -1.1549 H         1 <0>         0.1276
     53 H20        -1.7585  -12.7333   -1.3527 H         1 <0>         0.1323
     54 H21        -0.4729  -10.6426   -1.0234 H         1 <0>         0.1442
@<TRIPOS>BOND
     1    1    2 1
     2    1   34 1
     3    1   35 1
     4    1   36 1
     5    2    7 ar
     6    2    3 ar
     7    3    4 ar
     8    3   37 1
     9    4    5 ar
    10    4   38 1
    11    5    6 ar
    12    5   21 1
    13    6    7 ar
    14    6   39 1
    15    7    8 1
    16    8    9 1
    17    8   40 1
    18    9   14 ar
    19    9   10 ar
    20   10   11 ar
    21   11   12 ar
    22   11   41 1
    23   12   13 ar
    24   12   42 1
    25   13   14 ar
    26   13   15 1
    27   15   20 ar
    28   15   16 ar
    29   16   17 ar
    30   16   43 1
    31   17   18 ar
    32   17   44 1
    33   18   19 ar
    34   18   45 1
    35   19   20 ar
    36   20   46 1
    37   21   22 am
    38   21   47 1
    39   22   23 2
    40   22   24 1
    41   24   33 ar
    42   24   25 ar
    43   25   26 ar
    44   25   48 1
    45   26   27 ar
    46   26   49 1
    47   27   32 ar
    48   27   28 ar
    49   28   29 ar
    50   28   50 1
    51   29   30 ar
    52   29   51 1
    53   30   31 ar
    54   30   52 1
    55   31   32 ar
    56   31   53 1
    57   32   33 ar
    58   33   54 1
@<TRIPOS>MOLECULE
ZINC03832227
   54    58     0     0     0
SMALL
USER_CHARGES

@<TRIPOS>ATOM
      1 C1         -8.7060    5.6281   -0.3189 C.3       1 <0>        -0.1144
      2 C2         -7.3933    4.9039   -0.1653 C.ar      1 <0>        -0.1230
      3 C3         -6.2140    5.6205   -0.0948 C.ar      1 <0>        -0.0832
      4 C4         -5.0092    4.9609    0.0522 C.ar      1 <0>        -0.1269
      5 C5         -4.9787    3.5730    0.1182 C.ar      1 <0>         0.1542
      6 C6         -6.1610    2.8505    0.0477 C.ar      1 <0>        -0.1334
      7 C7         -7.3703    3.5166   -0.0942 C.ar      1 <0>         0.1772
      8 N1         -8.5640    2.7923   -0.1660 N.pl3     1 <0>        -0.6329
      9 C8         -8.5839    1.5484   -0.7758 C.ar      1 <0>         0.5662
     10 N2         -7.4601    1.0580   -1.2791 N.ar      1 <0>        -0.5548
     11 C9         -7.4378   -0.1265   -1.8688 C.ar      1 <0>         0.1952
     12 C10        -8.6078   -0.8600   -1.9588 C.ar      1 <0>        -0.2714
     13 C11        -9.7767   -0.3174   -1.4191 C.ar      1 <0>         0.2657
     14 N3         -9.7235    0.8780   -0.8359 N.ar      1 <0>        -0.5599
     15 C12       -11.0560   -1.0644   -1.4897 C.ar      1 <0>        -0.1156
     16 C13       -12.2262   -0.5220   -0.9500 C.ar      1 <0>        -0.0278
     17 C14       -13.3941   -1.2589   -1.0414 C.ar      1 <0>        -0.1782
     18 C15       -13.3666   -2.4967   -1.6581 C.ar      1 <0>         0.1164
     19 N4        -12.2471   -2.9826   -2.1583 N.ar      1 <0>        -0.4846
     20 C16       -11.1125   -2.3156   -2.1002 C.ar      1 <0>         0.1329
     21 N5         -3.7581    2.9058    0.2611 N.am      1 <0>        -0.6657
     22 C17        -2.6607    3.3654   -0.3721 C.2       1 <0>         0.5664
     23 O1         -2.7114    4.4064   -0.9987 O.2       1 <0>        -0.5106
     24 C18        -1.3988    2.6060   -0.3051 C.ar      1 <0>        -0.1282
     25 C19        -1.3002    1.4785    0.4972 C.ar      1 <0>        -0.0691
     26 C20        -0.1123    0.7622    0.5689 C.ar      1 <0>        -0.1323
     27 C21         0.9821    1.1369   -0.1518 C.ar      1 <0>        -0.0689
     28 C22         0.9259    2.2690   -0.9828 C.ar      1 <0>        -0.0610
     29 C23        -0.2744    3.0158   -1.0649 C.ar      1 <0>        -0.0106
     30 C24        -0.3293    4.1439   -1.8945 C.ar      1 <0>        -0.1175
     31 C25         0.7710    4.5091   -2.6105 C.ar      1 <0>        -0.1125
     32 C26         1.9528    3.7760   -2.5313 C.ar      1 <0>        -0.1122
     33 C27         2.0414    2.6746   -1.7361 C.ar      1 <0>        -0.1100
     34 H1         -9.1140    5.8535    0.6664 H         1 <0>         0.0709
     35 H2         -8.5468    6.5565   -0.8673 H         1 <0>         0.0722
     36 H3         -9.4066    4.9980   -0.8668 H         1 <0>         0.0621
     37 H4         -6.2346    6.6989   -0.1503 H         1 <0>         0.1307
     38 H5         -4.0896    5.5241    0.1114 H         1 <0>         0.1380
     39 H6         -6.1404    1.7722    0.1036 H         1 <0>         0.1446
     40 H7         -9.3783    3.1606    0.2111 H         1 <0>         0.4244
     41 H8         -6.5165   -0.5163   -2.2758 H         1 <0>         0.1740
     42 H9         -8.6171   -1.8292   -2.4353 H         1 <0>         0.1502
     43 H10       -12.2188    0.4472   -0.4734 H         1 <0>         0.1466
     44 H11       -14.3171   -0.8715   -0.6360 H         1 <0>         0.1423
     45 H12       -14.2763   -3.0743   -1.7316 H         1 <0>         0.1619
     46 H13       -10.2171   -2.7446   -2.5252 H         1 <0>         0.1624
     47 H14        -3.7013    2.1122    0.8160 H         1 <0>         0.4092
     48 H15        -2.1541    1.1571    1.0751 H         1 <0>         0.1269
     49 H16        -0.0562   -0.1097    1.2037 H         1 <0>         0.1324
     50 H17         1.8942    0.5624   -0.0846 H         1 <0>         0.1332
     51 H18        -1.2393    4.7211   -1.9659 H         1 <0>         0.1687
     52 H19         0.7260    5.3792   -3.2488 H         1 <0>         0.1253
     53 H20         2.8109    4.0855   -3.1094 H         1 <0>         0.1248
     54 H21         2.9638    2.1152   -1.6844 H         1 <0>         0.1296
@<TRIPOS>BOND
     1    1    2 1
     2    1   34 1
     3    1   35 1
     4    1   36 1
     5    2    7 ar
     6    2    3 ar
     7    3    4 ar
     8    3   37 1
     9    4    5 ar
    10    4   38 1
    11    5    6 ar
    12    5   21 1
    13    6    7 ar
    14    6   39 1
    15    7    8 1
    16    8    9 1
    17    8   40 1
    18    9   14 ar
    19    9   10 ar
    20   10   11 ar
    21   11   12 ar
    22   11   41 1
    23   12   13 ar
    24   12   42 1
    25   13   14 ar
    26   13   15 1
    27   15   20 ar
    28   15   16 ar
    29   16   17 ar
    30   16   43 1
    31   17   18 ar
    32   17   44 1
    33   18   19 ar
    34   18   45 1
    35   19   20 ar
    36   20   46 1
    37   21   22 am
    38   21   47 1
    39   22   23 2
    40   22   24 1
    41   24   29 ar
    42   24   25 ar
    43   25   26 ar
    44   25   48 1
    45   26   27 ar
    46   26   49 1
    47   27   28 ar
    48   27   50 1
    49   28   33 ar
    50   28   29 ar
    51   29   30 ar
    52   30   31 ar
    53   30   51 1
    54   31   32 ar
    55   31   52 1
    56   32   33 ar
    57   32   53 1
    58   33   54 1
@<TRIPOS>MOLECULE
ZINC03832228
   43    45     0     0     0
SMALL
USER_CHARGES

@<TRIPOS>ATOM
      1 C1         -8.4853   -2.5147    0.0293 C.3       1 <0>         0.0257
      2 O1         -7.2703   -3.2668    0.0194 O.3       1 <0>        -0.3162
      3 C2         -6.1087   -2.5621    0.0173 C.ar      1 <0>         0.1323
      4 C3         -4.8923   -3.2326    0.0078 C.ar      1 <0>        -0.1513
      5 C4         -3.7115   -2.5223    0.0061 C.ar      1 <0>        -0.0634
      6 C5         -3.7392   -1.1247    0.0138 C.ar      1 <0>        -0.0995
      7 C6         -4.9659   -0.4545    0.0292 C.ar      1 <0>        -0.0691
      8 C7         -6.1414   -1.1735    0.0250 C.ar      1 <0>        -0.2079
      9 C8         -2.4796   -0.3606    0.0120 C.2       1 <0>        -0.0890
     10 C9         -2.5087    0.9824    0.0194 C.2       1 <0>        -0.1148
     11 C10        -1.2492    1.7464    0.0176 C.ar      1 <0>        -0.1074
     12 C11        -1.2723    3.1385    0.0316 C.ar      1 <0>        -0.0516
     13 C12        -0.0439    3.8178    0.0231 C.ar      1 <0>        -0.0872
     14 C13         0.0090    5.2230    0.0293 C.ar      1 <0>        -0.1745
     15 C14         1.2186    5.8530    0.0206 C.ar      1 <0>         0.1254
     16 C15         2.4111    5.1130    0.0056 C.ar      1 <0>         0.1389
     17 C16         2.3897    3.7485   -0.0012 C.ar      1 <0>        -0.1706
     18 C17         1.1606    3.0680    0.0075 C.ar      1 <0>         0.1375
     19 N1          1.1202    1.7306    0.0007 N.ar      1 <0>        -0.4698
     20 C18        -0.0126    1.0758    0.0080 C.ar      1 <0>         0.1355
     21 O2          3.6036    5.7643   -0.0028 O.3       1 <0>        -0.3012
     22 C19         4.7832    4.9578   -0.0186 C.3       1 <0>         0.0216
     23 O3          1.2699    7.2115    0.0271 O.3       1 <0>        -0.3019
     24 C20         0.0220    7.9077    0.0425 C.3       1 <0>         0.0227
     25 H1         -8.5194   -1.8911    0.9226 H         1 <0>         0.0568
     26 H2         -8.5282   -1.8820   -0.8573 H         1 <0>         0.0568
     27 H3         -9.3351   -3.1972    0.0300 H         1 <0>         0.1021
     28 H4         -4.8719   -4.3124    0.0015 H         1 <0>         0.1340
     29 H5         -2.7662   -3.0445   -0.0009 H         1 <0>         0.1342
     30 H6         -4.9922    0.6251    0.0397 H         1 <0>         0.1283
     31 H7         -7.0896   -0.6566    0.0327 H         1 <0>         0.1302
     32 H8         -1.5328   -0.8802    0.0046 H         1 <0>         0.1250
     33 H9         -3.4555    1.5019    0.0268 H         1 <0>         0.1246
     34 H10        -2.2071    3.6793    0.0434 H         1 <0>         0.1400
     35 H11        -0.9036    5.8005    0.0412 H         1 <0>         0.1452
     36 H12         3.3157    3.1928   -0.0135 H         1 <0>         0.1508
     37 H13         0.0021   -0.0041    0.0020 H         1 <0>         0.1607
     38 H14         4.8018    4.3240    0.8680 H         1 <0>         0.0600
     39 H15         4.7843    4.3331   -0.9118 H         1 <0>         0.0600
     40 H16         5.6631    5.6011   -0.0240 H         1 <0>         0.1056
     41 H17        -0.5372    7.6314    0.9364 H         1 <0>         0.0582
     42 H18         0.2055    8.9821    0.0463 H         1 <0>         0.1051
     43 H19        -0.5540    7.6406   -0.8435 H         1 <0>         0.0582
@<TRIPOS>BOND
     1    1    2 1
     2    1   25 1
     3    1   26 1
     4    1   27 1
     5    2    3 1
     6    3    8 ar
     7    3    4 ar
     8    4    5 ar
     9    4   28 1
    10    5    6 ar
    11    5   29 1
    12    6    7 ar
    13    6    9 1
    14    7    8 ar
    15    7   30 1
    16    8   31 1
    17    9   10 2
    18    9   32 1
    19   10   11 1
    20   10   33 1
    21   11   20 ar
    22   11   12 ar
    23   12   13 ar
    24   12   34 1
    25   13   18 ar
    26   13   14 ar
    27   14   15 ar
    28   14   35 1
    29   15   16 ar
    30   15   23 1
    31   16   17 ar
    32   16   21 1
    33   17   18 ar
    34   17   36 1
    35   18   19 ar
    36   19   20 ar
    37   20   37 1
    38   21   22 1
    39   22   38 1
    40   22   39 1
    41   22   40 1
    42   23   24 1
    43   24   41 1
    44   24   42 1
    45   24   43 1
@<TRIPOS>MOLECULE
ZINC03832229
   57    60     0     0     0
SMALL
USER_CHARGES

@<TRIPOS>ATOM
      1 C1          4.9967   -2.4487   -3.0291 C.3       1 <0>        -0.1896
      2 C2          4.5995   -2.7552   -1.5837 C.3       1 <0>        -0.0079
      3 C3          2.3738   -3.5757   -2.0690 C.3       1 <0>        -0.0062
      4 C4          0.9495   -3.0728   -2.3127 C.3       1 <0>        -0.1926
      5 C5          2.8094   -2.4152    0.0109 C.3       1 <0>         0.1679
      6 O1          1.6120   -1.6478    0.1503 O.3       1 <0>        -0.2872
      7 C6          1.7253   -0.2985    0.0243 C.ar      1 <0>         0.0581
      8 C7          0.5910    0.4990    0.0637 C.ar      1 <0>        -0.1001
      9 C8          0.7052    1.8692   -0.0647 C.ar      1 <0>        -0.0674
     10 C9          1.9559    2.4487   -0.2332 C.ar      1 <0>         0.1598
     11 C10         3.0909    1.6496   -0.2720 C.ar      1 <0>        -0.1030
     12 C11         2.9750    0.2795   -0.1439 C.ar      1 <0>        -0.1972
     13 N1          2.0725    3.8379   -0.3629 N.pl3     1 <0>        -0.6319
     14 C12         1.2028    4.6707    0.3151 C.ar      1 <0>         0.5991
     15 N2          0.3027    4.1299    1.1292 N.ar      1 <0>        -0.5759
     16 C13        -0.5504    4.8810    1.8000 C.ar      1 <0>         0.2590
     17 C14        -0.4908    6.2733    1.6381 C.ar      1 <0>        -0.2604
     18 C15        -1.3779    7.1303    2.3303 C.2       1 <0>        -0.0001
     19 C16        -1.2798    8.4815    2.1386 C.2       1 <0>        -0.1193
     20 C17        -0.2623    9.0064    1.2252 C.2       1 <0>         0.5452
     21 O2         -0.1684   10.2080    1.0485 O.2       1 <0>        -0.4939
     22 N3          0.5700    8.1672    0.5792 N.am      1 <0>        -0.5067
     23 C18         0.4788    6.8105    0.7648 C.ar      1 <0>         0.4608
     24 N4          1.3004    5.9786    0.1340 N.ar      1 <0>        -0.5893
     25 C19         1.5824    8.7080   -0.3311 C.3       1 <0>         0.0686
     26 C20        -2.1957    9.4060    2.8487 C.2       1 <0>        -0.0793
     27 C21        -3.5629    9.3939    2.5878 C.2       1 <0>        -0.1458
     28 C22        -4.3666   10.2491    3.2592 C.2       1 <0>        -0.1709
     29 S1         -3.2063   11.1271    4.2925 S.3       1 <0>         0.0604
     30 C23        -1.7160   10.2944    3.7712 C.2       1 <0>        -0.1420
     31 H1          4.4199   -3.0791   -3.7059 H         1 <0>         0.0819
     32 H2          4.7934   -1.4003   -3.2472 H         1 <0>         0.0806
     33 H3          6.0597   -2.6484   -3.1639 H         1 <0>         0.1094
     34 H4          5.1556   -2.1051   -0.9084 H         1 <0>         0.1282
     35 H5          4.8290   -3.7963   -1.3568 H         1 <0>         0.1371
     36 H6          2.8363   -3.8328   -3.0219 H         1 <0>         0.1290
     37 H7          2.3431   -4.4583   -1.4302 H         1 <0>         0.1328
     38 H8          0.3547   -3.8689   -2.7605 H         1 <0>         0.1040
     39 H9          0.5023   -2.7746   -1.3645 H         1 <0>         0.0922
     40 H10         0.9768   -2.2166   -2.9867 H         1 <0>         0.0759
     41 H11         3.6205   -1.9239    0.5484 H         1 <0>         0.1324
     42 H12         2.6520   -3.4121    0.4226 H         1 <0>         0.1744
     43 H13        -0.3816    0.0482    0.1943 H         1 <0>         0.1446
     44 H14        -0.1785    2.4897   -0.0385 H         1 <0>         0.1562
     45 H15         4.0640    2.0994   -0.4030 H         1 <0>         0.1386
     46 H16         3.8576   -0.3422   -0.1745 H         1 <0>         0.1238
     47 H17         2.7639    4.2159   -0.9287 H         1 <0>         0.4293
     48 H18        -1.2791    4.4333    2.4595 H         1 <0>         0.1904
     49 H19        -2.1217    6.7242    2.9997 H         1 <0>         0.1533
     50 H20         1.1660    8.7805   -1.3358 H         1 <0>         0.0756
     51 H21         1.8849    9.6984    0.0091 H         1 <0>         0.0942
     52 H22         2.4495    8.0477   -0.3438 H         1 <0>         0.0941
     53 H23        -3.9762    8.7088    1.8623 H         1 <0>         0.1347
     54 H24        -5.4370   10.3725    3.1857 H         1 <0>         0.1895
     55 H25        -0.6992   10.4511    4.0995 H         1 <0>         0.1846
     56 N5          3.1528   -2.4976   -1.4244 N.4       1 <0>        -0.4262
     57 H26         2.9215   -1.6042   -1.8745 H         1 <0>         0.4270
@<TRIPOS>BOND
     1    1    2 1
     2    1   31 1
     3    1   32 1
     4    1   33 1
     5    2   34 1
     6    2   35 1
     7    2   56 1
     8    3    4 1
     9    3   36 1
    10    3   37 1
    11    3   56 1
    12    4   38 1
    13    4   39 1
    14    4   40 1
    15    5    6 1
    16    5   41 1
    17    5   42 1
    18    5   56 1
    19    6    7 1
    20    7   12 ar
    21    7    8 ar
    22    8    9 ar
    23    8   43 1
    24    9   10 ar
    25    9   44 1
    26   10   11 ar
    27   10   13 1
    28   11   12 ar
    29   11   45 1
    30   12   46 1
    31   13   14 1
    32   13   47 1
    33   14   24 ar
    34   14   15 ar
    35   15   16 ar
    36   16   17 ar
    37   16   48 1
    38   17   23 ar
    39   17   18 1
    40   18   19 2
    41   18   49 1
    42   19   20 1
    43   19   26 1
    44   20   21 2
    45   20   22 am
    46   22   23 1
    47   22   25 1
    48   23   24 ar
    49   25   50 1
    50   25   51 1
    51   25   52 1
    52   26   30 2
    53   26   27 1
    54   27   28 2
    55   27   53 1
    56   28   29 1
    57   28   54 1
    58   29   30 1
    59   30   55 1
    60   56   57 1
@<TRIPOS>MOLECULE
ZINC03832230
   28    30     0     0     0
SMALL
USER_CHARGES

@<TRIPOS>ATOM
      1 C1          3.5325    1.9037   -0.0215 C.3       1 <0>         0.0240
      2 O1          2.3426    1.1124   -0.0143 O.3       1 <0>        -0.3147
      3 C2          1.1584    1.7790    0.0006 C.ar      1 <0>         0.1334
      4 C3          1.1521    3.1773    0.0077 C.ar      1 <0>        -0.1745
      5 C4         -0.0163    3.8731    0.0226 C.ar      1 <0>        -0.0485
      6 C5         -1.2421    3.1838    0.0305 C.ar      1 <0>         0.0929
      7 C6         -1.2358    1.7658    0.0175 C.ar      1 <0>        -0.0556
      8 C7         -0.0126    1.0758    0.0080 C.ar      1 <0>        -0.1476
      9 C8         -2.4607    1.0759    0.0194 C.ar      1 <0>        -0.0627
     10 C9         -3.6289    1.8237    0.0285 C.ar      1 <0>        -0.0677
     11 C10        -3.5526    3.2257    0.0353 C.ar      1 <0>         0.1304
     12 N1         -2.4018    3.8493    0.0448 N.ar      1 <0>        -0.4595
     13 C11        -4.9491    1.1473    0.0304 C.2       1 <0>        -0.0816
     14 C12        -6.1279    1.8870    0.0395 C.2       1 <0>        -0.1518
     15 C13        -7.3120    1.2344    0.0405 C.2       1 <0>        -0.1664
     16 S1         -6.8018   -0.4757    0.0285 S.3       1 <0>         0.0556
     17 C14        -5.0357   -0.2171    0.0176 C.2       1 <0>        -0.1651
     18 H1          3.5420    2.5375   -0.9082 H         1 <0>         0.0580
     19 H2          3.5590    2.5279    0.8717 H         1 <0>         0.0580
     20 H3          4.4040    1.2491   -0.0333 H         1 <0>         0.1034
     21 H4          2.0898    3.7132    0.0016 H         1 <0>         0.1386
     22 H5         -0.0028    4.9530    0.0286 H         1 <0>         0.1421
     23 H6          0.0021   -0.0041    0.0020 H         1 <0>         0.1390
     24 H7         -2.4911   -0.0036    0.0137 H         1 <0>         0.1413
     25 H8         -4.4652    3.8032    0.0424 H         1 <0>         0.1609
     26 H9         -6.0973    2.9665    0.0453 H         1 <0>         0.1399
     27 H10        -8.3115    1.6436    0.0464 H         1 <0>         0.1901
     28 H11        -4.2414   -0.9487    0.0051 H         1 <0>         0.1882
@<TRIPOS>BOND
     1    1    2 1
     2    1   18 1
     3    1   19 1
     4    1   20 1
     5    2    3 1
     6    3    8 ar
     7    3    4 ar
     8    4    5 ar
     9    4   21 1
    10    5    6 ar
    11    5   22 1
    12    6   12 ar
    13    6    7 ar
    14    7    8 ar
    15    7    9 ar
    16    8   23 1
    17    9   10 ar
    18    9   24 1
    19   10   11 ar
    20   10   13 1
    21   11   12 ar
    22   11   25 1
    23   13   17 2
    24   13   14 1
    25   14   15 2
    26   14   26 1
    27   15   16 1
    28   15   27 1
    29   16   17 1
    30   17   28 1
@<TRIPOS>MOLECULE
ZINC03832231
   43    46     0     0     0
SMALL
USER_CHARGES

@<TRIPOS>ATOM
      1 C1         -1.8924    2.3205    1.4933 C.3       1 <0>        -0.1626
      2 C2         -1.2515    2.0637    0.1280 C.3       1 <0>         0.0964
      3 N1          0.0102    1.3414    0.3089 N.am      1 <0>        -0.5038
      4 C3          0.0125   -0.0305    0.3144 C.ar      1 <0>         0.4623
      5 C4          1.2204   -0.7418    0.4818 C.ar      1 <0>        -0.2704
      6 C5          2.4393   -0.0451    0.6459 C.2       1 <0>         0.0093
      7 C6          2.4272    1.3240    0.6396 C.2       1 <0>        -0.1493
      8 C7          1.1570    2.0310    0.4627 C.2       1 <0>         0.5485
      9 O1          1.1373    3.2490    0.4554 O.2       1 <0>        -0.5009
     10 C8          3.6881    2.0835    0.8093 C.ar      1 <0>        -0.0328
     11 C9          3.8748    2.8882    1.9328 C.ar      1 <0>        -0.0887
     12 C10         5.0534    3.5889    2.0878 C.ar      1 <0>        -0.1191
     13 C11         6.0439    3.5034    1.1258 C.ar      1 <0>        -0.1132
     14 C12         5.8622    2.7110    0.0065 C.ar      1 <0>        -0.1202
     15 C13         4.6904    2.0010   -0.1568 C.ar      1 <0>        -0.1020
     16 C14         1.1791   -2.1442    0.4804 C.ar      1 <0>         0.2605
     17 N2          0.0127   -2.7416    0.3227 N.ar      1 <0>        -0.5680
     18 C15        -1.1042   -2.0395    0.1678 C.ar      1 <0>         0.6049
     19 N3         -1.1153   -0.7155    0.1622 N.ar      1 <0>        -0.5904
     20 N4         -2.2988   -2.7159    0.0065 N.pl3     1 <0>        -0.6255
     21 C16        -2.3032   -4.1049   -0.1071 C.ar      1 <0>         0.2035
     22 C17        -1.2515   -4.7750   -0.7312 C.ar      1 <0>        -0.1668
     23 C18        -1.2919   -6.1508   -0.8195 C.ar      1 <0>         0.1182
     24 N5         -2.3125   -6.8304   -0.3313 N.ar      1 <0>        -0.4970
     25 C19        -3.3287   -6.2328    0.2621 C.ar      1 <0>         0.1209
     26 C20        -3.3622   -4.8604    0.3952 C.ar      1 <0>        -0.2013
     27 H1         -2.8312    2.8579    1.3587 H         1 <0>         0.0775
     28 H2         -2.0863    1.3690    1.9884 H         1 <0>         0.0594
     29 H3         -1.2165    2.9176    2.1055 H         1 <0>         0.0606
     30 H4         -1.0576    3.0152   -0.3672 H         1 <0>         0.0984
     31 H5         -1.9274    1.4666   -0.4842 H         1 <0>         0.1004
     32 H6          3.3660   -0.5845    0.7747 H         1 <0>         0.1519
     33 H7          3.1003    2.9594    2.6821 H         1 <0>         0.1201
     34 H8          5.2010    4.2090    2.9597 H         1 <0>         0.1248
     35 H9          6.9628    4.0573    1.2493 H         1 <0>         0.1236
     36 H10         6.6391    2.6481   -0.7412 H         1 <0>         0.1254
     37 H11         4.5498    1.3823   -1.0309 H         1 <0>         0.1234
     38 H12         2.0824   -2.7226    0.6061 H         1 <0>         0.1894
     39 H13        -3.1341   -2.2239   -0.0277 H         1 <0>         0.4292
     40 H14        -0.4155   -4.2245   -1.1369 H         1 <0>         0.1458
     41 H15        -0.4800   -6.6784   -1.2978 H         1 <0>         0.1595
     42 H16        -4.1445   -6.8259    0.6482 H         1 <0>         0.1604
     43 H17        -4.1971   -4.3776    0.8812 H         1 <0>         0.1378
@<TRIPOS>BOND
     1    1    2 1
     2    1   27 1
     3    1   28 1
     4    1   29 1
     5    2    3 1
     6    2   30 1
     7    2   31 1
     8    3    8 am
     9    3    4 1
    10    4   19 ar
    11    4    5 ar
    12    5    6 1
    13    5   16 ar
    14    6    7 2
    15    6   32 1
    16    7    8 1
    17    7   10 1
    18    8    9 2
    19   10   15 ar
    20   10   11 ar
    21   11   12 ar
    22   11   33 1
    23   12   13 ar
    24   12   34 1
    25   13   14 ar
    26   13   35 1
    27   14   15 ar
    28   14   36 1
    29   15   37 1
    30   16   17 ar
    31   16   38 1
    32   17   18 ar
    33   18   19 ar
    34   18   20 1
    35   20   21 1
    36   20   39 1
    37   21   26 ar
    38   21   22 ar
    39   22   23 ar
    40   22   40 1
    41   23   24 ar
    42   23   41 1
    43   24   25 ar
    44   25   26 ar
    45   25   42 1
    46   26   43 1
@<TRIPOS>MOLECULE
ZINC03832232
   34    36     0     0     0
SMALL
USER_CHARGES

@<TRIPOS>ATOM
      1 C1          1.0567   -4.7802   -0.0291 C.3       1 <0>         0.0231
      2 O1          2.3338   -4.1393   -0.0383 O.3       1 <0>        -0.3098
      3 C2          2.3422   -2.7812   -0.0329 C.ar      1 <0>         0.1987
      4 C3          1.1479   -2.0942   -0.0196 C.ar      1 <0>        -0.2430
      5 C4          1.1509   -0.6910   -0.0126 C.ar      1 <0>         0.2040
      6 C5          2.3912   -0.0033   -0.0207 C.ar      1 <0>        -0.1508
      7 C6          2.3943    1.3998   -0.0137 C.ar      1 <0>         0.0002
      8 C7          1.1701    2.0551    0.0019 C.ar      1 <0>        -0.1405
      9 C8         -0.0157    1.3050    0.0092 C.ar      1 <0>         0.1721
     10 N1          0.0021   -0.0041    0.0020 N.ar      1 <0>        -0.4826
     11 C9          1.1164    3.5370    0.0099 C.ar      1 <0>         0.0117
     12 C10         2.2892    4.2981    0.0086 C.ar      1 <0>        -0.1700
     13 C11         2.1938    5.6743    0.0109 C.ar      1 <0>         0.1069
     14 N2          1.0174    6.2716    0.0248 N.ar      1 <0>        -0.4881
     15 C12        -0.1127    5.5907    0.0316 C.ar      1 <0>         0.1069
     16 C13        -0.1083    4.2112    0.0246 C.ar      1 <0>        -0.1694
     17 C14         3.5973   -0.7346   -0.0352 C.ar      1 <0>         0.1983
     18 C15         3.5611   -2.0999   -0.0413 C.ar      1 <0>        -0.2458
     19 O2          4.7888   -0.0843   -0.0436 O.3       1 <0>        -0.3057
     20 C16         5.9681   -0.8911   -0.0581 C.3       1 <0>         0.0219
     21 H1          0.5097   -4.4875    0.8671 H         1 <0>         0.0619
     22 H2          0.4933   -4.4803   -0.9128 H         1 <0>         0.0619
     23 H3          1.1928   -5.8616   -0.0348 H         1 <0>         0.1053
     24 H4          0.2125   -2.6340   -0.0135 H         1 <0>         0.1453
     25 H5          3.3214    1.9537   -0.0192 H         1 <0>         0.1483
     26 H6         -0.9652    1.8196    0.0165 H         1 <0>         0.1648
     27 H7          3.2555    3.8159    0.0018 H         1 <0>         0.1368
     28 H8          3.0941    6.2708    0.0058 H         1 <0>         0.1588
     29 H9         -1.0539    6.1203    0.0430 H         1 <0>         0.1596
     30 H10        -1.0371    3.6602    0.0302 H         1 <0>         0.1390
     31 H11         4.4853   -2.6586   -0.0524 H         1 <0>         0.1457
     32 H12         5.9696   -1.5164   -0.9509 H         1 <0>         0.0632
     33 H13         6.8482   -0.2480   -0.0636 H         1 <0>         0.1081
     34 H14         5.9862   -1.5242    0.8289 H         1 <0>         0.0632
@<TRIPOS>BOND
     1    1    2 1
     2    1   21 1
     3    1   22 1
     4    1   23 1
     5    2    3 1
     6    3   18 ar
     7    3    4 ar
     8    4    5 ar
     9    4   24 1
    10    5   10 ar
    11    5    6 ar
    12    6    7 ar
    13    6   17 ar
    14    7    8 ar
    15    7   25 1
    16    8    9 ar
    17    8   11 1
    18    9   10 ar
    19    9   26 1
    20   11   16 ar
    21   11   12 ar
    22   12   13 ar
    23   12   27 1
    24   13   14 ar
    25   13   28 1
    26   14   15 ar
    27   15   16 ar
    28   15   29 1
    29   16   30 1
    30   17   18 ar
    31   17   19 1
    32   18   31 1
    33   19   20 1
    34   20   32 1
    35   20   33 1
    36   20   34 1
@<TRIPOS>MOLECULE
ZINC03832233
   45    48     0     0     0
SMALL
USER_CHARGES

@<TRIPOS>ATOM
      1 C1          6.7144    0.3369   -1.9958 C.ar      1 <0>        -0.0889
      2 C2          6.4308    1.5764   -2.5416 C.ar      1 <0>        -0.1263
      3 C3          5.2122    2.1767   -2.3013 C.ar      1 <0>        -0.0557
      4 C4          4.2644    1.5310   -1.5056 C.ar      1 <0>        -0.1397
      5 C5          4.5590    0.2831   -0.9537 C.ar      1 <0>        -0.0854
      6 C6          5.7792   -0.3088   -1.2066 C.ar      1 <0>        -0.1264
      7 C7          2.9568    2.1685   -1.2434 C.2       1 <0>         0.5620
      8 O1          2.7049    3.2576   -1.7212 O.2       1 <0>        -0.5122
      9 N1          2.0438    1.5424   -0.4747 N.am      1 <0>        -0.6671
     10 C8          0.7759    2.1057   -0.2955 C.ar      1 <0>         0.1689
     11 C9          0.6319    3.4858   -0.2245 C.ar      1 <0>        -0.1239
     12 C10        -0.6198    4.0433   -0.0480 C.ar      1 <0>        -0.0704
     13 C11        -1.7329    3.2303    0.0585 C.ar      1 <0>        -0.0791
     14 C12        -1.5958    1.8489   -0.0175 C.ar      1 <0>         0.1920
     15 C13        -0.3389    1.2865   -0.1890 C.ar      1 <0>        -0.1301
     16 N2         -2.7228    1.0268    0.0844 N.pl3     1 <0>        -0.6325
     17 C14        -2.6280   -0.2036    0.7140 C.ar      1 <0>         0.5693
     18 N3         -1.4457   -0.6182    1.1463 N.ar      1 <0>        -0.5590
     19 C15        -1.3137   -1.7872    1.7525 C.ar      1 <0>         0.1950
     20 C16        -2.4298   -2.5848    1.9352 C.ar      1 <0>        -0.2696
     21 C17        -3.6626   -2.1213    1.4689 C.ar      1 <0>         0.2676
     22 N4         -3.7213   -0.9324    0.8730 N.ar      1 <0>        -0.5565
     23 C18        -4.8882   -2.9386    1.6409 C.ar      1 <0>        -0.1171
     24 C19        -6.1222   -2.4754    1.1746 C.ar      1 <0>        -0.0271
     25 C20        -7.2361   -3.2757    1.3596 C.ar      1 <0>        -0.1781
     26 C21        -7.0942   -4.4967    1.9941 C.ar      1 <0>         0.1173
     27 N5         -5.9166   -4.9071    2.4234 N.ar      1 <0>        -0.4848
     28 C22        -4.8276   -4.1829    2.2649 C.ar      1 <0>         0.1335
     29 Cl1        -3.3038    3.9351    0.2803 Cl        1 <0>        -0.0635
     30 H1          7.6699   -0.1287   -2.1870 H         1 <0>         0.1299
     31 H2          7.1649    2.0747   -3.1573 H         1 <0>         0.1328
     32 H3          4.9922    3.1443   -2.7275 H         1 <0>         0.1383
     33 H4          3.8317   -0.2198   -0.3336 H         1 <0>         0.1260
     34 H5          6.0069   -1.2761   -0.7836 H         1 <0>         0.1315
     35 H6          2.2659    0.7012   -0.0458 H         1 <0>         0.4128
     36 H7          1.4996    4.1235   -0.3071 H         1 <0>         0.1493
     37 H8         -0.7289    5.1163    0.0072 H         1 <0>         0.1425
     38 H9         -0.2292    0.2135   -0.2439 H         1 <0>         0.1563
     39 H10        -3.5708    1.3181   -0.2857 H         1 <0>         0.4273
     40 H11        -0.3454   -2.1154    2.1005 H         1 <0>         0.1758
     41 H12        -2.3496   -3.5433    2.4264 H         1 <0>         0.1512
     42 H13        -6.2042   -1.5174    0.6828 H         1 <0>         0.1470
     43 H14        -8.2056   -2.9506    1.0121 H         1 <0>         0.1426
     44 H15        -7.9613   -5.1239    2.1398 H         1 <0>         0.1621
     45 H16        -3.8802   -4.5550    2.6259 H         1 <0>         0.1626
@<TRIPOS>BOND
     1    1    6 ar
     2    1    2 ar
     3    1   30 1
     4    2    3 ar
     5    2   31 1
     6    3    4 ar
     7    3   32 1
     8    4    5 ar
     9    4    7 1
    10    5    6 ar
    11    5   33 1
    12    6   34 1
    13    7    8 2
    14    7    9 am
    15    9   10 1
    16    9   35 1
    17   10   15 ar
    18   10   11 ar
    19   11   12 ar
    20   11   36 1
    21   12   13 ar
    22   12   37 1
    23   13   14 ar
    24   13   29 1
    25   14   15 ar
    26   14   16 1
    27   15   38 1
    28   16   17 1
    29   16   39 1
    30   17   22 ar
    31   17   18 ar
    32   18   19 ar
    33   19   20 ar
    34   19   40 1
    35   20   21 ar
    36   20   41 1
    37   21   22 ar
    38   21   23 1
    39   23   28 ar
    40   23   24 ar
    41   24   25 ar
    42   24   42 1
    43   25   26 ar
    44   25   43 1
    45   26   27 ar
    46   26   44 1
    47   27   28 ar
    48   28   45 1
@<TRIPOS>MOLECULE
ZINC03832234
   44    46     0     0     0
SMALL
USER_CHARGES

@<TRIPOS>ATOM
      1 C1          3.5721    2.0745   -0.0209 C.3       1 <0>        -0.1537
      2 C2          2.3715    1.1261   -0.0145 C.3       1 <0>         0.0627
      3 O1          1.1432    1.9003    0.0013 O.3       1 <0>        -0.3544
      4 C3         -0.0144    1.2107    0.0087 C.2       1 <0>         0.5089
      5 O2          0.0021   -0.0041    0.0020 O.2       1 <0>        -0.5042
      6 C4         -1.3022    1.9311    0.0187 C.ar      1 <0>        -0.1278
      7 C5         -1.3218    3.3287    0.0322 C.ar      1 <0>        -0.0544
      8 C6         -2.5235    3.9995    0.0361 C.ar      1 <0>        -0.1266
      9 C7         -3.7222    3.2848    0.0379 C.ar      1 <0>         0.0000
     10 C8         -3.7039    1.8894    0.0298 C.ar      1 <0>        -0.1229
     11 C9         -2.5035    1.2164    0.0205 C.ar      1 <0>        -0.0464
     12 C10        -5.0156    4.0083    0.0479 C.ar      1 <0>        -0.1138
     13 C11        -5.0404    5.3969    0.0618 C.ar      1 <0>        -0.0403
     14 C12        -6.2918    6.0341    0.0653 C.ar      1 <0>        -0.0900
     15 C13        -6.3934    7.4363    0.0742 C.ar      1 <0>        -0.1729
     16 C14        -7.6242    8.0238    0.0841 C.ar      1 <0>         0.1263
     17 C15        -8.7904    7.2428    0.0845 C.ar      1 <0>         0.1439
     18 C16        -8.7216    5.8799    0.0760 C.ar      1 <0>        -0.1731
     19 C17        -7.4694    5.2429    0.0662 C.ar      1 <0>         0.1445
     20 N1         -7.3813    3.9081    0.0581 N.ar      1 <0>        -0.4683
     21 C18        -6.2246    3.2952    0.0493 C.ar      1 <0>         0.1442
     22 O3        -10.0047    7.8522    0.0941 O.3       1 <0>        -0.3001
     23 C19       -11.1556    7.0052    0.0946 C.3       1 <0>         0.0211
     24 O4         -7.7224    9.3797    0.0931 O.3       1 <0>        -0.3011
     25 C20        -6.4994   10.1188    0.0920 C.3       1 <0>         0.0222
     26 H1          3.5302    2.7077   -0.9071 H         1 <0>         0.0675
     27 H2          3.5472    2.6982    0.8727 H         1 <0>         0.0675
     28 H3          4.4941    1.4934   -0.0328 H         1 <0>         0.0821
     29 H4          2.4134    0.4929    0.8717 H         1 <0>         0.0721
     30 H5          2.3964    0.5025   -0.9082 H         1 <0>         0.0721
     31 H6         -0.3943    3.8820    0.0353 H         1 <0>         0.1421
     32 H7         -2.5389    5.0793    0.0424 H         1 <0>         0.1344
     33 H8         -4.6322    1.3374    0.0312 H         1 <0>         0.1391
     34 H9         -2.4896    0.1365    0.0150 H         1 <0>         0.1427
     35 H10        -4.1247    5.9695    0.0658 H         1 <0>         0.1434
     36 H11        -5.5013    8.0451    0.0732 H         1 <0>         0.1465
     37 H12        -9.6278    5.2923    0.0773 H         1 <0>         0.1523
     38 H13        -6.2000    2.2155    0.0434 H         1 <0>         0.1634
     39 H14       -12.0573    7.6176    0.1026 H         1 <0>         0.1063
     40 H15       -11.1480    6.3814   -0.7992 H         1 <0>         0.0607
     41 H16       -11.1394    6.3707    0.9807 H         1 <0>         0.0607
     42 H17        -5.9185    9.8614    0.9777 H         1 <0>         0.0587
     43 H18        -5.9268    9.8726   -0.8022 H         1 <0>         0.0587
     44 H19        -6.7199   11.1862    0.0998 H         1 <0>         0.1057
@<TRIPOS>BOND
     1    1    2 1
     2    1   26 1
     3    1   27 1
     4    1   28 1
     5    2    3 1
     6    2   29 1
     7    2   30 1
     8    3    4 1
     9    4    5 2
    10    4    6 1
    11    6   11 ar
    12    6    7 ar
    13    7    8 ar
    14    7   31 1
    15    8    9 ar
    16    8   32 1
    17    9   10 ar
    18    9   12 1
    19   10   11 ar
    20   10   33 1
    21   11   34 1
    22   12   21 ar
    23   12   13 ar
    24   13   14 ar
    25   13   35 1
    26   14   19 ar
    27   14   15 ar
    28   15   16 ar
    29   15   36 1
    30   16   17 ar
    31   16   24 1
    32   17   18 ar
    33   17   22 1
    34   18   19 ar
    35   18   37 1
    36   19   20 ar
    37   20   21 ar
    38   21   38 1
    39   22   23 1
    40   23   39 1
    41   23   40 1
    42   23   41 1
    43   24   25 1
    44   25   42 1
    45   25   43 1
    46   25   44 1
@<TRIPOS>MOLECULE
ZINC03832235
   31    33     0     0     0
SMALL
USER_CHARGES

@<TRIPOS>ATOM
      1 C1         -6.1081   -2.5614    0.0197 C.ar      1 <0>        -0.1166
      2 C2         -4.8969   -3.2305    0.0103 C.ar      1 <0>        -0.1193
      3 C3         -3.7137   -2.5218    0.0081 C.ar      1 <0>        -0.1054
      4 C4         -3.7402   -1.1247    0.0153 C.ar      1 <0>        -0.0614
      5 C5         -4.9671   -0.4559    0.0306 C.ar      1 <0>        -0.1120
      6 C6         -6.1422   -1.1780    0.0265 C.ar      1 <0>        -0.1191
      7 C7         -2.4802   -0.3602    0.0129 C.2       1 <0>        -0.0973
      8 C8         -2.5094    0.9824    0.0199 C.2       1 <0>        -0.1069
      9 C9         -1.2498    1.7466    0.0175 C.ar      1 <0>        -0.1094
     10 C10        -1.2730    3.1380    0.0297 C.ar      1 <0>        -0.0488
     11 C11        -0.0435    3.8171    0.0221 C.ar      1 <0>        -0.0992
     12 C12         0.0126    5.2216    0.0296 C.ar      1 <0>        -0.0974
     13 C13         1.2219    5.8467    0.0223 C.ar      1 <0>        -0.1142
     14 C14         2.4057    5.1118    0.0075 C.ar      1 <0>        -0.1001
     15 C15         2.3883    3.7507   -0.0005 C.ar      1 <0>        -0.0928
     16 C16         1.1601    3.0675    0.0070 C.ar      1 <0>         0.1238
     17 N1          1.1199    1.7303    0.0007 N.ar      1 <0>        -0.4710
     18 C17        -0.0126    1.0758    0.0080 C.ar      1 <0>         0.1398
     19 H1         -7.0315   -3.1216    0.0214 H         1 <0>         0.1232
     20 H2         -4.8780   -4.3103    0.0051 H         1 <0>         0.1249
     21 H3         -2.7691   -3.0454    0.0004 H         1 <0>         0.1259
     22 H4         -4.9952    0.6237    0.0408 H         1 <0>         0.1248
     23 H5         -7.0912   -0.6626    0.0334 H         1 <0>         0.1242
     24 H6         -1.5334   -0.8797    0.0056 H         1 <0>         0.1253
     25 H7         -3.4562    1.5019    0.0273 H         1 <0>         0.1270
     26 H8         -2.2077    3.6790    0.0408 H         1 <0>         0.1421
     27 H9         -0.8985    5.8015    0.0406 H         1 <0>         0.1314
     28 H10         1.2643    6.9259    0.0284 H         1 <0>         0.1296
     29 H11         3.3529    5.6308    0.0024 H         1 <0>         0.1316
     30 H12         3.3157    3.1974   -0.0120 H         1 <0>         0.1365
     31 H13         0.0021   -0.0041    0.0020 H         1 <0>         0.1610
@<TRIPOS>BOND
     1    1    6 ar
     2    1    2 ar
     3    1   19 1
     4    2    3 ar
     5    2   20 1
     6    3    4 ar
     7    3   21 1
     8    4    5 ar
     9    4    7 1
    10    5    6 ar
    11    5   22 1
    12    6   23 1
    13    7    8 2
    14    7   24 1
    15    8    9 1
    16    8   25 1
    17    9   18 ar
    18    9   10 ar
    19   10   11 ar
    20   10   26 1
    21   11   16 ar
    22   11   12 ar
    23   12   13 ar
    24   12   27 1
    25   13   14 ar
    26   13   28 1
    27   14   15 ar
    28   14   29 1
    29   15   16 ar
    30   15   30 1
    31   16   17 ar
    32   17   18 ar
    33   18   31 1
@<TRIPOS>MOLECULE
ZINC03832236
   36    38     0     0     0
SMALL
USER_CHARGES

@<TRIPOS>ATOM
      1 C1         -7.2403    0.8683    0.0402 C.3       1 <0>         0.0190
      2 O1         -6.3592   -0.2567    0.0304 O.3       1 <0>        -0.2602
      3 C2         -5.0264    0.0039    0.0260 C.2       1 <0>         0.0642
      4 C3         -3.9815   -0.8720    0.0168 C.2       1 <0>        -0.2068
      5 C4         -2.6953   -0.3771    0.0073 C.2       1 <0>        -0.0983
      6 C5         -2.5108    0.9792    0.0194 C.2       1 <0>        -0.1296
      7 S1         -4.1912    1.5817    0.0302 S.3       1 <0>         0.0308
      8 C6         -1.2483    1.7457    0.0175 C.ar      1 <0>        -0.0499
      9 C7         -1.2723    3.1363    0.0306 C.ar      1 <0>        -0.0537
     10 C8         -0.0440    3.8168    0.0221 C.ar      1 <0>        -0.0820
     11 C9          0.0082    5.2218    0.0284 C.ar      1 <0>        -0.1749
     12 C10         1.2176    5.8525    0.0193 C.ar      1 <0>         0.1278
     13 C11         2.4104    5.1132    0.0047 C.ar      1 <0>         0.1404
     14 C12         2.3898    3.7489   -0.0016 C.ar      1 <0>        -0.1697
     15 C13         1.1607    3.0678    0.0070 C.ar      1 <0>         0.1384
     16 N1          1.1206    1.7306    0.0007 N.ar      1 <0>        -0.4634
     17 C14        -0.0126    1.0758    0.0080 C.ar      1 <0>         0.1482
     18 O2          3.6027    5.7653   -0.0037 O.3       1 <0>        -0.3007
     19 C15         4.7828    4.9595   -0.0189 C.3       1 <0>         0.0213
     20 O3          1.2681    7.2110    0.0249 O.3       1 <0>        -0.3010
     21 C16         0.0199    7.9065    0.0398 C.3       1 <0>         0.0223
     22 H1         -7.0559    1.4664    0.9326 H         1 <0>         0.0631
     23 H2         -7.0636    1.4759   -0.8473 H         1 <0>         0.0631
     24 H3         -8.2734    0.5207    0.0428 H         1 <0>         0.1143
     25 H4         -4.1591   -1.9373    0.0118 H         1 <0>         0.1448
     26 H5         -1.8484   -1.0471   -0.0060 H         1 <0>         0.1449
     27 H6         -2.2075    3.6765    0.0425 H         1 <0>         0.1373
     28 H7         -0.9047    5.7988    0.0396 H         1 <0>         0.1456
     29 H8          3.3161    3.1938   -0.0136 H         1 <0>         0.1522
     30 H9          0.0021   -0.0041    0.0020 H         1 <0>         0.1635
     31 H10         5.6623    5.6033   -0.0244 H         1 <0>         0.1058
     32 H11         4.8016    4.3260    0.8679 H         1 <0>         0.0605
     33 H12         4.7844    4.3345   -0.9120 H         1 <0>         0.0604
     34 H13         0.2027    8.9810    0.0429 H         1 <0>         0.1056
     35 H14        -0.5560    7.6385   -0.8460 H         1 <0>         0.0585
     36 H15        -0.5392    7.6305    0.9339 H         1 <0>         0.0585
@<TRIPOS>BOND
     1    1    2 1
     2    1   22 1
     3    1   23 1
     4    1   24 1
     5    2    3 1
     6    3    7 1
     7    3    4 2
     8    4    5 1
     9    4   25 1
    10    5    6 2
    11    5   26 1
    12    6    7 1
    13    6    8 1
    14    8   17 ar
    15    8    9 ar
    16    9   10 ar
    17    9   27 1
    18   10   15 ar
    19   10   11 ar
    20   11   12 ar
    21   11   28 1
    22   12   13 ar
    23   12   20 1
    24   13   14 ar
    25   13   18 1
    26   14   15 ar
    27   14   29 1
    28   15   16 ar
    29   16   17 ar
    30   17   30 1
    31   18   19 1
    32   19   31 1
    33   19   32 1
    34   19   33 1
    35   20   21 1
    36   21   34 1
    37   21   35 1
    38   21   36 1
@<TRIPOS>MOLECULE
ZINC03832237
   49    52     0     0     0
SMALL
USER_CHARGES

@<TRIPOS>ATOM
      1 C1         -3.4049    3.7848    0.0395 C.ar      1 <0>        -0.1099
      2 C2         -3.2972    2.7615   -0.8843 C.ar      1 <0>        -0.0978
      3 C3         -2.1756    1.9556   -0.8967 C.ar      1 <0>        -0.1158
      4 C4         -1.1555    2.1739    0.0196 C.ar      1 <0>         0.1165
      5 C5         -1.2691    3.1986    0.9496 C.ar      1 <0>        -0.1176
      6 C6         -2.3904    4.0050    0.9530 C.ar      1 <0>        -0.1002
      7 N1         -0.0164    1.3581    0.0095 N.pl3     1 <0>        -0.4433
      8 C7          0.0021   -0.0041    0.0020 C.2       1 <0>         0.2863
      9 N2          1.2301   -0.4342   -0.0120 N.2       1 <0>        -0.4906
     10 C8          2.0853    0.6208   -0.0145 C.ar      1 <0>         0.0896
     11 C9          1.3001    1.7861   -0.0008 C.ar      1 <0>         0.0230
     12 C10         1.9078    3.0332    0.0006 C.ar      1 <0>        -0.0617
     13 C11         3.2830    3.1275   -0.0120 C.ar      1 <0>        -0.1827
     14 C12         4.0676    1.9781   -0.0261 C.ar      1 <0>         0.1136
     15 C13         3.4782    0.7294   -0.0272 C.ar      1 <0>        -0.0963
     16 O1          5.4231    2.0854   -0.0385 O.3       1 <0>        -0.3110
     17 C14         5.9693    3.4059   -0.0366 C.3       1 <0>         0.0638
     18 C15         7.4972    3.3258   -0.0516 C.3       1 <0>        -0.1521
     19 C16         8.0821    4.7396   -0.0496 C.3       1 <0>        -0.0006
     20 C17        10.0582    4.0788    1.1854 C.3       1 <0>        -0.0442
     21 C18        11.5826    3.9623    1.1039 C.3       1 <0>         0.0349
     22 O2         12.1409    5.2527    0.8422 O.3       1 <0>        -0.3566
     23 C19        11.6672    5.8505   -0.3676 C.3       1 <0>         0.0343
     24 C20        10.1437    5.9861   -0.3009 C.3       1 <0>        -0.0383
     25 H1         -4.2829    4.4137    0.0472 H         1 <0>         0.1339
     26 H2         -4.0909    2.5924   -1.5970 H         1 <0>         0.1370
     27 H3         -2.0920    1.1567   -1.6187 H         1 <0>         0.1328
     28 H4         -0.4793    3.3680    1.6665 H         1 <0>         0.1280
     29 H5         -2.4774    4.8050    1.6733 H         1 <0>         0.1348
     30 H6         -0.8746   -0.6349    0.0070 H         1 <0>         0.2207
     31 H7          1.3044    3.9288    0.0119 H         1 <0>         0.1296
     32 H8          3.7544    4.0992   -0.0106 H         1 <0>         0.1339
     33 H9          4.0913   -0.1596   -0.0382 H         1 <0>         0.1414
     34 H10         5.6250    3.9428   -0.9205 H         1 <0>         0.0727
     35 H11         5.6420    3.9333    0.8594 H         1 <0>         0.0725
     36 H12         7.8415    2.7888    0.8323 H         1 <0>         0.0992
     37 H13         7.8246    2.7984   -0.9476 H         1 <0>         0.0999
     38 H14         7.7377    5.2765   -0.9335 H         1 <0>         0.1355
     39 H15         7.7547    5.2669    0.8464 H         1 <0>         0.1362
     40 H16         9.7865    4.7200    2.0240 H         1 <0>         0.1415
     41 H17         9.6247    3.0889    1.3279 H         1 <0>         0.1429
     42 H18        11.8528    3.2788    0.2990 H         1 <0>         0.0818
     43 H19        11.9698    3.5832    2.0496 H         1 <0>         0.1424
     44 H20        11.9399    5.2219   -1.2153 H         1 <0>         0.0816
     45 H21        12.1155    6.8369   -0.4861 H         1 <0>         0.1423
     46 H22         9.7725    6.3885   -1.2435 H         1 <0>         0.1419
     47 H23         9.8733    6.6577    0.5139 H         1 <0>         0.1410
     48 N3          9.5577    4.6468   -0.0843 N.4       1 <0>        -0.3952
     49 H24         9.8353    4.0315   -0.8580 H         1 <0>         0.4284
@<TRIPOS>BOND
     1    1    6 ar
     2    1    2 ar
     3    1   25 1
     4    2    3 ar
     5    2   26 1
     6    3    4 ar
     7    3   27 1
     8    4    5 ar
     9    4    7 1
    10    5    6 ar
    11    5   28 1
    12    6   29 1
    13    7   11 1
    14    7    8 1
    15    8    9 2
    16    8   30 1
    17    9   10 1
    18   10   15 ar
    19   10   11 ar
    20   11   12 ar
    21   12   13 ar
    22   12   31 1
    23   13   14 ar
    24   13   32 1
    25   14   15 ar
    26   14   16 1
    27   15   33 1
    28   16   17 1
    29   17   18 1
    30   17   34 1
    31   17   35 1
    32   18   19 1
    33   18   36 1
    34   18   37 1
    35   19   38 1
    36   19   39 1
    37   19   48 1
    38   20   21 1
    39   20   40 1
    40   20   41 1
    41   20   48 1
    42   21   22 1
    43   21   42 1
    44   21   43 1
    45   22   23 1
    46   23   24 1
    47   23   44 1
    48   23   45 1
    49   24   46 1
    50   24   47 1
    51   24   48 1
    52   48   49 1
@<TRIPOS>MOLECULE
ZINC03832238
   44    47     0     0     0
SMALL
USER_CHARGES

@<TRIPOS>ATOM
      1 C1         -1.9062    2.3203    1.4976 C.3       1 <0>        -0.1623
      2 C2         -1.2481    2.0627    0.1406 C.3       1 <0>         0.0969
      3 N1          0.0104    1.3392    0.3378 N.am      1 <0>        -0.5042
      4 C3          0.0113   -0.0328    0.3435 C.ar      1 <0>         0.4632
      5 C4          1.2163   -0.7453    0.5265 C.ar      1 <0>        -0.2762
      6 C5          2.4337   -0.0497    0.7055 C.2       1 <0>         0.0123
      7 C6          2.4231    1.3194    0.6984 C.2       1 <0>        -0.1542
      8 C7          1.1558    2.0277    0.5061 C.2       1 <0>         0.5491
      9 O1          1.1374    3.2456    0.4984 O.2       1 <0>        -0.5032
     10 C8          3.6825    2.0777    0.8836 C.ar      1 <0>        -0.0309
     11 C9          3.8558    2.8827    2.0091 C.ar      1 <0>        -0.0891
     12 C10         5.0333    3.5819    2.1789 C.ar      1 <0>        -0.1193
     13 C11         6.0358    3.4949    1.2296 C.ar      1 <0>        -0.1141
     14 C12         5.8675    2.7020    0.1085 C.ar      1 <0>        -0.1204
     15 C13         4.6969    1.9936   -0.0696 C.ar      1 <0>        -0.1026
     16 C14         1.1735   -2.1476    0.5253 C.ar      1 <0>         0.2602
     17 N2          0.0087   -2.7440    0.3533 N.ar      1 <0>        -0.5675
     18 C15        -1.1056   -2.0408    0.1839 C.ar      1 <0>         0.6061
     19 N3         -1.1152   -0.7166    0.1775 N.ar      1 <0>        -0.5948
     20 N4         -2.2982   -2.7158    0.0080 N.pl3     1 <0>        -0.6270
     21 C16        -2.3026   -4.1092   -0.1054 C.ar      1 <0>         0.1551
     22 C17        -1.2464   -4.7600   -0.7302 C.ar      1 <0>        -0.1099
     23 C18        -1.2512   -6.1371   -0.8354 C.ar      1 <0>        -0.1006
     24 C19        -2.3111   -6.8671   -0.3294 C.ar      1 <0>        -0.1331
     25 C20        -3.3671   -6.2218    0.2877 C.ar      1 <0>        -0.0995
     26 C21        -3.3659   -4.8455    0.4014 C.ar      1 <0>        -0.1441
     27 H1         -2.8426    2.8586    1.3509 H         1 <0>         0.0769
     28 H2         -2.1073    1.3691    1.9904 H         1 <0>         0.0595
     29 H3         -1.2376    2.9168    2.1183 H         1 <0>         0.0602
     30 H4         -1.0470    3.0139   -0.3521 H         1 <0>         0.0976
     31 H5         -1.9167    1.4662   -0.4800 H         1 <0>         0.1002
     32 H6          3.3582   -0.5900    0.8462 H         1 <0>         0.1506
     33 H7          3.0720    2.9552    2.7484 H         1 <0>         0.1199
     34 H8          5.1705    4.2022    3.0523 H         1 <0>         0.1245
     35 H9          6.9537    4.0478    1.3645 H         1 <0>         0.1232
     36 H10         6.6539    2.6377   -0.6291 H         1 <0>         0.1250
     37 H11         4.5666    1.3750   -0.9452 H         1 <0>         0.1231
     38 H12         2.0746   -2.7269    0.6627 H         1 <0>         0.1874
     39 H13        -3.1325   -2.2229   -0.0368 H         1 <0>         0.4260
     40 H14        -0.4205   -4.1901   -1.1295 H         1 <0>         0.1340
     41 H15        -0.4283   -6.6440   -1.3174 H         1 <0>         0.1261
     42 H16        -2.3143   -7.9435   -0.4167 H         1 <0>         0.1238
     43 H17        -4.1935   -6.7949    0.6815 H         1 <0>         0.1269
     44 H18        -4.1909   -4.3421    0.8834 H         1 <0>         0.1249
@<TRIPOS>BOND
     1    1    2 1
     2    1   27 1
     3    1   28 1
     4    1   29 1
     5    2    3 1
     6    2   30 1
     7    2   31 1
     8    3    8 am
     9    3    4 1
    10    4   19 ar
    11    4    5 ar
    12    5    6 1
    13    5   16 ar
    14    6    7 2
    15    6   32 1
    16    7    8 1
    17    7   10 1
    18    8    9 2
    19   10   15 ar
    20   10   11 ar
    21   11   12 ar
    22   11   33 1
    23   12   13 ar
    24   12   34 1
    25   13   14 ar
    26   13   35 1
    27   14   15 ar
    28   14   36 1
    29   15   37 1
    30   16   17 ar
    31   16   38 1
    32   17   18 ar
    33   18   19 ar
    34   18   20 1
    35   20   21 1
    36   20   39 1
    37   21   26 ar
    38   21   22 ar
    39   22   23 ar
    40   22   40 1
    41   23   24 ar
    42   23   41 1
    43   24   25 ar
    44   24   42 1
    45   25   26 ar
    46   25   43 1
    47   26   44 1
@<TRIPOS>MOLECULE
ZINC03832239
   57    60     0     0     0
SMALL
USER_CHARGES

@<TRIPOS>ATOM
      1 C1         -0.8089   -4.5382    5.7354 C.3       1 <0>        -0.0462
      2 C2         -0.0689   -4.1836    3.4569 C.3       1 <0>        -0.0255
      3 C3          0.5840   -3.1698    2.5144 C.3       1 <0>        -0.0260
      4 C4         -0.4478   -1.3599    3.7466 C.3       1 <0>        -0.0371
      5 C5         -1.1007   -2.3737    4.6891 C.3       1 <0>        -0.0223
      6 C6          0.2922   -1.0053    1.4681 C.3       1 <0>        -0.0263
      7 C7         -0.7147    0.0874    1.2164 C.2       1 <0>         0.4940
      8 O1         -1.7895    0.0626    1.7778 O.2       1 <0>        -0.5185
      9 N1         -0.4208    1.0921    0.3675 N.am      1 <0>        -0.6282
     10 C8         -1.3906    2.0515    0.0565 C.ar      1 <0>         0.1277
     11 C9         -1.0134    3.3639   -0.2003 C.ar      1 <0>        -0.1459
     12 C10        -1.9697    4.3107   -0.5121 C.ar      1 <0>        -0.0728
     13 C11        -3.3050    3.9587   -0.5595 C.ar      1 <0>        -0.1070
     14 C12        -3.6894    2.6494   -0.2986 C.ar      1 <0>         0.1947
     15 C13        -2.7303    1.6947    0.0098 C.ar      1 <0>        -0.1483
     16 N2         -5.0407    2.2940   -0.3463 N.pl3     1 <0>        -0.6407
     17 C14        -6.0103    3.2033    0.0441 C.ar      1 <0>         0.5584
     18 N3         -5.6354    4.3661    0.5580 N.ar      1 <0>        -0.5596
     19 C15        -6.5311    5.2614    0.9424 C.ar      1 <0>         0.1957
     20 C16        -7.8777    4.9744    0.8036 C.ar      1 <0>        -0.2599
     21 C17        -8.2426    3.7406    0.2587 C.ar      1 <0>         0.2713
     22 N4         -7.2870    2.8907   -0.1107 N.ar      1 <0>        -0.5575
     23 C18        -9.6726    3.3857    0.0893 C.ar      1 <0>        -0.1258
     24 C19       -10.0385    2.1514   -0.4559 C.ar      1 <0>        -0.0273
     25 C20       -11.3862    1.8681   -0.5931 C.ar      1 <0>        -0.1789
     26 C21       -12.3193    2.8063   -0.1903 C.ar      1 <0>         0.1244
     27 N5        -11.9438    3.9628    0.3208 N.ar      1 <0>        -0.4813
     28 C22       -10.6734    4.2747    0.4762 C.ar      1 <0>         0.1376
     29 H1         -0.1283   -5.3839    5.8337 H         1 <0>         0.1363
     30 H2         -0.9351   -4.0587    6.7061 H         1 <0>         0.1363
     31 H3         -1.7758   -4.8899    5.3754 H         1 <0>         0.1328
     32 H4         -1.0377   -4.4814    3.0560 H         1 <0>         0.1565
     33 H5          0.5720   -5.0606    3.5481 H         1 <0>         0.1779
     34 H6          0.6951   -3.6125    1.5246 H         1 <0>         0.1771
     35 H7          1.5647   -2.8925    2.9010 H         1 <0>         0.1597
     36 H8          0.5210   -1.0621    4.1476 H         1 <0>         0.1561
     37 H9         -1.0889   -0.4831    3.6552 H         1 <0>         0.1859
     38 H10        -2.0813   -2.6509    4.3022 H         1 <0>         0.1573
     39 H11        -1.2119   -1.9310    5.6789 H         1 <0>         0.1762
     40 H12         0.5212   -1.5114    0.5303 H         1 <0>         0.1743
     41 H13         1.2039   -0.5716    1.8790 H         1 <0>         0.1722
     42 H14         0.4643    1.1523   -0.0248 H         1 <0>         0.4235
     43 H15         0.0291    3.6432   -0.1597 H         1 <0>         0.1318
     44 H16        -1.6735    5.3293   -0.7150 H         1 <0>         0.1405
     45 H17        -4.0507    4.7021   -0.7999 H         1 <0>         0.1440
     46 H18        -3.0264    0.6760    0.2127 H         1 <0>         0.1330
     47 H19        -5.2994    1.4107   -0.6526 H         1 <0>         0.4234
     48 H20        -6.2145    6.2056    1.3602 H         1 <0>         0.1793
     49 H21        -8.6291    5.6872    1.1097 H         1 <0>         0.1557
     50 H22        -9.2885    1.4373   -0.7625 H         1 <0>         0.1441
     51 H23       -11.7060    0.9244   -1.0099 H         1 <0>         0.1439
     52 H24       -13.3718    2.5884   -0.2956 H         1 <0>         0.1654
     53 H25       -10.4051    5.2298    0.9029 H         1 <0>         0.1633
     54 N6         -0.2279   -3.5625    4.7886 N.4       1 <0>        -0.4069
     55 H26         0.6944   -3.2716    5.1334 H         1 <0>         0.4400
     56 N7         -0.2887   -1.9812    2.4148 N.4       1 <0>        -0.3932
     57 H27        -1.2110   -2.2722    2.0699 H         1 <0>         0.4447
@<TRIPOS>BOND
     1    1   29 1
     2    1   30 1
     3    1   31 1
     4    1   54 1
     5    2    3 1
     6    2   32 1
     7    2   33 1
     8    2   54 1
     9    3   34 1
    10    3   35 1
    11    3   56 1
    12    4    5 1
    13    4   36 1
    14    4   37 1
    15    4   56 1
    16    5   38 1
    17    5   39 1
    18    5   54 1
    19    6    7 1
    20    6   40 1
    21    6   41 1
    22    6   56 1
    23    7    8 2
    24    7    9 am
    25    9   10 1
    26    9   42 1
    27   10   15 ar
    28   10   11 ar
    29   11   12 ar
    30   11   43 1
    31   12   13 ar
    32   12   44 1
    33   13   14 ar
    34   13   45 1
    35   14   15 ar
    36   14   16 1
    37   15   46 1
    38   16   17 1
    39   16   47 1
    40   17   22 ar
    41   17   18 ar
    42   18   19 ar
    43   19   20 ar
    44   19   48 1
    45   20   21 ar
    46   20   49 1
    47   21   22 ar
    48   21   23 1
    49   23   28 ar
    50   23   24 ar
    51   24   25 ar
    52   24   50 1
    53   25   26 ar
    54   25   51 1
    55   26   27 ar
    56   26   52 1
    57   27   28 ar
    58   28   53 1
    59   54   55 1
    60   56   57 1
@<TRIPOS>MOLECULE
ZINC03832240
   24    26     0     0     0
SMALL
USER_CHARGES

@<TRIPOS>ATOM
      1 C1         -1.3712    5.8103    0.0469 C.ar      1 <0>        -0.1132
      2 C2         -2.5363    5.0457    0.0535 C.ar      1 <0>        -0.1006
      3 C3         -2.4844    3.6858    0.0456 C.ar      1 <0>        -0.0919
      4 C4         -1.2387    3.0342    0.0302 C.ar      1 <0>         0.1228
      5 C5         -0.0548    3.8140    0.0231 C.ar      1 <0>        -0.0963
      6 C6         -0.1465    5.2162    0.0320 C.ar      1 <0>        -0.0980
      7 C7          1.1918    3.1650    0.0077 C.ar      1 <0>        -0.0527
      8 C8          1.2033    1.7778    0.0001 C.ar      1 <0>        -0.0807
      9 C9         -0.0126    1.0758    0.0080 C.ar      1 <0>         0.1424
     10 N1         -1.1634    1.6992    0.0169 N.ar      1 <0>        -0.4692
     11 C10         2.4910    1.0415   -0.0156 C.2       1 <0>        -0.0795
     12 C11         2.5152   -0.3500   -0.0229 C.2       1 <0>        -0.1528
     13 C12         3.7085   -0.9854   -0.0377 C.2       1 <0>        -0.1654
     14 S1          4.8623    0.3762   -0.0421 S.3       1 <0>         0.0551
     15 C13         3.6810    1.7143   -0.0291 C.2       1 <0>        -0.1676
     16 H1         -1.4409    6.8880    0.0537 H         1 <0>         0.1296
     17 H2         -3.4962    5.5405    0.0654 H         1 <0>         0.1317
     18 H3         -3.3974    3.1088    0.0516 H         1 <0>         0.1367
     19 H4          0.7495    5.8191    0.0265 H         1 <0>         0.1312
     20 H5          2.1127    3.7291    0.0015 H         1 <0>         0.1402
     21 H6          0.0021   -0.0041    0.0020 H         1 <0>         0.1609
     22 H7          1.5942   -0.9140   -0.0171 H         1 <0>         0.1396
     23 H8          3.9117   -2.0461   -0.0453 H         1 <0>         0.1902
     24 H9          3.8600    2.7794   -0.0303 H         1 <0>         0.1875
@<TRIPOS>BOND
     1    1    6 ar
     2    1    2 ar
     3    1   16 1
     4    2    3 ar
     5    2   17 1
     6    3    4 ar
     7    3   18 1
     8    4   10 ar
     9    4    5 ar
    10    5    6 ar
    11    5    7 ar
    12    6   19 1
    13    7    8 ar
    14    7   20 1
    15    8    9 ar
    16    8   11 1
    17    9   10 ar
    18    9   21 1
    19   11   15 2
    20   11   12 1
    21   12   13 2
    22   12   22 1
    23   13   14 1
    24   13   23 1
    25   14   15 1
    26   15   24 1
@<TRIPOS>MOLECULE
ZINC03832241
   41    43     0     0     0
SMALL
USER_CHARGES

@<TRIPOS>ATOM
      1 C1         -7.2569   -0.4225    0.0330 C.3       1 <0>         0.0170
      2 O1         -6.0409   -1.1731    0.0230 O.3       1 <0>        -0.2790
      3 C2         -4.8801   -0.4668    0.0217 C.ar      1 <0>         0.1977
      4 C3         -4.9136    0.9213    0.0298 C.ar      1 <0>        -0.2059
      5 C4         -3.7373    1.6408    0.0285 C.ar      1 <0>        -0.0203
      6 C5         -2.5135    0.9731    0.0189 C.ar      1 <0>        -0.0721
      7 C6         -2.4831   -0.4203    0.0050 C.ar      1 <0>        -0.0127
      8 C7         -3.6631   -1.1344    0.0117 C.ar      1 <0>        -0.0741
      9 N1         -3.6317   -2.6143    0.0031 N.pl3     1 <0>         0.0337
     10 O2         -2.5643   -3.2008   -0.0057 O.2       1 <0>        -0.1728
     11 O3         -4.6734   -3.2456    0.0047 O.3       1 <0>        -0.1329
     12 C8         -1.2463    1.7441    0.0175 C.ar      1 <0>        -0.1015
     13 C9         -1.2723    3.1317    0.0321 C.ar      1 <0>        -0.0468
     14 C10        -0.0448    3.8147    0.0231 C.ar      1 <0>        -0.0864
     15 C11         0.0053    5.2196    0.0292 C.ar      1 <0>        -0.1754
     16 C12         1.2138    5.8519    0.0201 C.ar      1 <0>         0.1288
     17 C13         2.4078    5.1143    0.0045 C.ar      1 <0>         0.1435
     18 C14         2.3890    3.7500   -0.0017 C.ar      1 <0>        -0.1715
     19 C15         1.1607    3.0674    0.0074 C.ar      1 <0>         0.1430
     20 N2          1.1213    1.7305    0.0006 N.ar      1 <0>        -0.4622
     21 C16        -0.0126    1.0758    0.0080 C.ar      1 <0>         0.1390
     22 O4          3.5990    5.7680   -0.0048 O.3       1 <0>        -0.2999
     23 C17         4.7802    4.9639   -0.0210 C.3       1 <0>         0.0208
     24 O5          1.2623    7.2104    0.0265 O.3       1 <0>        -0.3004
     25 C18         0.0131    7.9041    0.0423 C.3       1 <0>         0.0223
     26 H1         -8.1058   -1.1062    0.0330 H         1 <0>         0.1148
     27 H2         -7.2921    0.2004    0.9267 H         1 <0>         0.0644
     28 H3         -7.3003    0.2106   -0.8532 H         1 <0>         0.0644
     29 H4         -5.8620    1.4380    0.0368 H         1 <0>         0.1565
     30 H5         -3.7641    2.7204    0.0344 H         1 <0>         0.1478
     31 H6         -1.5366   -0.9403   -0.0069 H         1 <0>         0.1639
     32 H7         -2.2084    3.6703    0.0443 H         1 <0>         0.1419
     33 H8         -0.9084    5.7952    0.0415 H         1 <0>         0.1464
     34 H9          3.3161    3.1960   -0.0140 H         1 <0>         0.1532
     35 H10         0.0021   -0.0041    0.0020 H         1 <0>         0.1628
     36 H11         5.6588    5.6089   -0.0271 H         1 <0>         0.1067
     37 H12         4.8007    4.3304    0.8658 H         1 <0>         0.0611
     38 H13         4.7820    4.3389   -0.9140 H         1 <0>         0.0611
     39 H14        -0.5627    7.6358   -0.8434 H         1 <0>         0.0586
     40 H15        -0.5452    7.6268    0.9365 H         1 <0>         0.0586
     41 H16         0.1944    8.9790    0.0460 H         1 <0>         0.1061
@<TRIPOS>BOND
     1    1    2 1
     2    1   26 1
     3    1   27 1
     4    1   28 1
     5    2    3 1
     6    3    8 ar
     7    3    4 ar
     8    4    5 ar
     9    4   29 1
    10    5    6 ar
    11    5   30 1
    12    6    7 ar
    13    6   12 1
    14    7    8 ar
    15    7   31 1
    16    8    9 1
    17    9   10 2
    18    9   11 1
    19   12   21 ar
    20   12   13 ar
    21   13   14 ar
    22   13   32 1
    23   14   19 ar
    24   14   15 ar
    25   15   16 ar
    26   15   33 1
    27   16   17 ar
    28   16   24 1
    29   17   18 ar
    30   17   22 1
    31   18   19 ar
    32   18   34 1
    33   19   20 ar
    34   20   21 ar
    35   21   35 1
    36   22   23 1
    37   23   36 1
    38   23   37 1
    39   23   38 1
    40   24   25 1
    41   25   39 1
    42   25   40 1
    43   25   41 1
@<TRIPOS>MOLECULE
ZINC03832242
   52    55     0     0     0
SMALL
USER_CHARGES

@<TRIPOS>ATOM
      1 C1         -3.4049    3.7848    0.0395 C.ar      1 <0>        -0.1110
      2 C2         -3.2972    2.7615   -0.8843 C.ar      1 <0>        -0.0980
      3 C3         -2.1756    1.9556   -0.8967 C.ar      1 <0>        -0.1163
      4 C4         -1.1555    2.1739    0.0196 C.ar      1 <0>         0.1186
      5 C5         -1.2691    3.1986    0.9496 C.ar      1 <0>        -0.1180
      6 C6         -2.3904    4.0050    0.9530 C.ar      1 <0>        -0.1003
      7 N1         -0.0164    1.3581    0.0095 N.pl3     1 <0>        -0.4444
      8 C7          0.0021   -0.0041    0.0020 C.2       1 <0>         0.2844
      9 N2          1.2301   -0.4342   -0.0120 N.2       1 <0>        -0.4905
     10 C8          2.0853    0.6208   -0.0145 C.ar      1 <0>         0.0897
     11 C9          1.3001    1.7861   -0.0008 C.ar      1 <0>         0.0212
     12 C10         1.9078    3.0332    0.0006 C.ar      1 <0>        -0.0634
     13 C11         3.2830    3.1275   -0.0120 C.ar      1 <0>        -0.1824
     14 C12         4.0676    1.9781   -0.0261 C.ar      1 <0>         0.1171
     15 C13         3.4782    0.7294   -0.0272 C.ar      1 <0>        -0.0994
     16 O1          5.4231    2.0854   -0.0385 O.3       1 <0>        -0.3119
     17 C14         5.9693    3.4059   -0.0366 C.3       1 <0>         0.0597
     18 C15         7.4972    3.3258   -0.0516 C.3       1 <0>        -0.1183
     19 C16         8.0821    4.7396   -0.0496 C.3       1 <0>        -0.1471
     20 C17         9.6099    4.6594   -0.0646 C.3       1 <0>        -0.0033
     21 C18         9.8524    6.7208   -1.3133 C.3       1 <0>        -0.0431
     22 C19        10.4036    8.1474   -1.2445 C.3       1 <0>         0.0347
     23 O2         11.8110    8.0979   -0.9949 O.3       1 <0>        -0.3566
     24 C20        12.1575    7.4198    0.2157 C.3       1 <0>         0.0342
     25 C21        11.6241    5.9858    0.1616 C.3       1 <0>        -0.0385
     26 H1         -4.2829    4.4137    0.0472 H         1 <0>         0.1334
     27 H2         -4.0909    2.5924   -1.5970 H         1 <0>         0.1366
     28 H3         -2.0920    1.1567   -1.6187 H         1 <0>         0.1326
     29 H4         -0.4793    3.3680    1.6665 H         1 <0>         0.1280
     30 H5         -2.4774    4.8050    1.6733 H         1 <0>         0.1344
     31 H6         -0.8746   -0.6349    0.0070 H         1 <0>         0.2200
     32 H7          1.3044    3.9288    0.0119 H         1 <0>         0.1283
     33 H8          3.7544    4.0992   -0.0106 H         1 <0>         0.1334
     34 H9          4.0913   -0.1596   -0.0382 H         1 <0>         0.1411
     35 H10         5.6250    3.9428   -0.9205 H         1 <0>         0.0648
     36 H11         5.6420    3.9333    0.8594 H         1 <0>         0.0651
     37 H12         7.8415    2.7888    0.8323 H         1 <0>         0.0878
     38 H13         7.8246    2.7984   -0.9476 H         1 <0>         0.0875
     39 H14         7.7377    5.2765   -0.9335 H         1 <0>         0.0902
     40 H15         7.7547    5.2669    0.8464 H         1 <0>         0.0909
     41 H16         9.9543    4.1225    0.8193 H         1 <0>         0.1343
     42 H17         9.9373    4.1321   -0.9606 H         1 <0>         0.1349
     43 H18        10.3070    6.1951   -2.1530 H         1 <0>         0.1411
     44 H19         8.7711    6.7544   -1.4464 H         1 <0>         0.1410
     45 H20         9.9099    8.6899   -0.4382 H         1 <0>         0.0808
     46 H21        10.2196    8.6548   -2.1915 H         1 <0>         0.1416
     47 H22        11.7147    7.9411    1.0644 H         1 <0>         0.0811
     48 H23        13.2418    7.4009    0.3247 H         1 <0>         0.1421
     49 H24        11.8359    5.4828    1.1052 H         1 <0>         0.1417
     50 H25        12.1069    5.4483   -0.6545 H         1 <0>         0.1407
     51 N3         10.1607    6.0318   -0.0427 N.4       1 <0>        -0.3968
     52 H26         9.7313    6.5514    0.7318 H         1 <0>         0.4266
@<TRIPOS>BOND
     1    1    6 ar
     2    1    2 ar
     3    1   26 1
     4    2    3 ar
     5    2   27 1
     6    3    4 ar
     7    3   28 1
     8    4    5 ar
     9    4    7 1
    10    5    6 ar
    11    5   29 1
    12    6   30 1
    13    7   11 1
    14    7    8 1
    15    8    9 2
    16    8   31 1
    17    9   10 1
    18   10   15 ar
    19   10   11 ar
    20   11   12 ar
    21   12   13 ar
    22   12   32 1
    23   13   14 ar
    24   13   33 1
    25   14   15 ar
    26   14   16 1
    27   15   34 1
    28   16   17 1
    29   17   18 1
    30   17   35 1
    31   17   36 1
    32   18   19 1
    33   18   37 1
    34   18   38 1
    35   19   20 1
    36   19   39 1
    37   19   40 1
    38   20   41 1
    39   20   42 1
    40   20   51 1
    41   21   22 1
    42   21   43 1
    43   21   44 1
    44   21   51 1
    45   22   23 1
    46   22   45 1
    47   22   46 1
    48   23   24 1
    49   24   25 1
    50   24   47 1
    51   24   48 1
    52   25   49 1
    53   25   50 1
    54   25   51 1
    55   51   52 1
@<TRIPOS>MOLECULE
ZINC03832243
   41    44     0     0     0
SMALL
USER_CHARGES

@<TRIPOS>ATOM
      1 C1          2.2933    6.3642   -2.2040 C.3       1 <0>         0.0698
      2 N1          1.9604    5.6596   -0.9635 N.am      1 <0>        -0.5073
      3 C2          1.4808    6.3656    0.1107 C.ar      1 <0>         0.4616
      4 C3          1.1557    5.7019    1.3137 C.ar      1 <0>        -0.2754
      5 C4          1.3214    4.3023    1.4211 C.2       1 <0>         0.0128
      6 C5          1.8002    3.6061    0.3436 C.2       1 <0>        -0.1536
      7 C6          2.1335    4.3260   -0.8873 C.2       1 <0>         0.5483
      8 O1          2.5647    3.7150   -1.8488 O.2       1 <0>        -0.5036
      9 C7          1.9851    2.1382    0.4245 C.ar      1 <0>        -0.0312
     10 C8          0.8812    1.3014    0.5852 C.ar      1 <0>        -0.1026
     11 C9          1.0598   -0.0649    0.6594 C.ar      1 <0>        -0.1203
     12 C10         2.3306   -0.6049    0.5741 C.ar      1 <0>        -0.1140
     13 C11         3.4295    0.2202    0.4146 C.ar      1 <0>        -0.1191
     14 C12         3.2638    1.5881    0.3400 C.ar      1 <0>        -0.0893
     15 C13         0.6692    6.4610    2.3886 C.ar      1 <0>         0.2608
     16 N2          0.5351    7.7647    2.2318 N.ar      1 <0>        -0.5671
     17 C14         0.8511    8.3555    1.0847 C.ar      1 <0>         0.6068
     18 N3          1.3137    7.6815    0.0429 N.ar      1 <0>        -0.5965
     19 N4          0.6918    9.7235    0.9747 N.pl3     1 <0>        -0.6269
     20 C15         0.0985   10.4441    2.0156 C.ar      1 <0>         0.1546
     21 C16        -0.9135    9.8677    2.7726 C.ar      1 <0>        -0.1099
     22 C17        -1.4934   10.5802    3.8038 C.ar      1 <0>        -0.1006
     23 C18        -1.0753   11.8699    4.0759 C.ar      1 <0>        -0.1329
     24 C19        -0.0723   12.4489    3.3202 C.ar      1 <0>        -0.0995
     25 C20         0.5159   11.7399    2.2913 C.ar      1 <0>        -0.1438
     26 H1          3.3365    6.6787   -2.1745 H         1 <0>         0.0740
     27 H2          2.1383    5.6983   -3.0529 H         1 <0>         0.0918
     28 H3          1.6526    7.2400   -2.3076 H         1 <0>         0.0945
     29 H4          1.0739    3.7898    2.3389 H         1 <0>         0.1513
     30 H5         -0.1118    1.7215    0.6471 H         1 <0>         0.1233
     31 H6          0.2056   -0.7140    0.7839 H         1 <0>         0.1252
     32 H7          2.4654   -1.6748    0.6327 H         1 <0>         0.1233
     33 H8          4.4192   -0.2071    0.3486 H         1 <0>         0.1246
     34 H9          4.1225    2.2312    0.2162 H         1 <0>         0.1202
     35 H10         0.4102    5.9887    3.3247 H         1 <0>         0.1881
     36 H11         0.9916   10.1840    0.1754 H         1 <0>         0.4261
     37 H12        -1.2436    8.8621    2.5577 H         1 <0>         0.1341
     38 H13        -2.2775   10.1312    4.3954 H         1 <0>         0.1262
     39 H14        -1.5333   12.4264    4.8803 H         1 <0>         0.1239
     40 H15         0.2517   13.4565    3.5351 H         1 <0>         0.1271
     41 H16         1.2991   12.1926    1.7015 H         1 <0>         0.1251
@<TRIPOS>BOND
     1    1    2 1
     2    1   26 1
     3    1   27 1
     4    1   28 1
     5    2    7 am
     6    2    3 1
     7    3   18 ar
     8    3    4 ar
     9    4    5 1
    10    4   15 ar
    11    5    6 2
    12    5   29 1
    13    6    7 1
    14    6    9 1
    15    7    8 2
    16    9   14 ar
    17    9   10 ar
    18   10   11 ar
    19   10   30 1
    20   11   12 ar
    21   11   31 1
    22   12   13 ar
    23   12   32 1
    24   13   14 ar
    25   13   33 1
    26   14   34 1
    27   15   16 ar
    28   15   35 1
    29   16   17 ar
    30   17   18 ar
    31   17   19 1
    32   19   20 1
    33   19   36 1
    34   20   25 ar
    35   20   21 ar
    36   21   22 ar
    37   21   37 1
    38   22   23 ar
    39   22   38 1
    40   23   24 ar
    41   23   39 1
    42   24   25 ar
    43   24   40 1
    44   25   41 1
@<TRIPOS>MOLECULE
ZINC03832244
   52    55     0     0     0
SMALL
USER_CHARGES

@<TRIPOS>ATOM
      1 C1          4.9014   -3.9972    0.1405 C.3       1 <0>        -0.1125
      2 C2          3.5916   -4.7425    0.1416 C.ar      1 <0>        -0.1366
      3 C3          3.5793   -6.1162    0.2900 C.ar      1 <0>        -0.0764
      4 C4          2.3812   -6.8038    0.2854 C.ar      1 <0>        -0.1421
      5 C5          1.1834   -6.1147    0.1377 C.ar      1 <0>         0.1675
      6 C6          1.1918   -4.7348   -0.0057 C.ar      1 <0>        -0.1543
      7 C7          2.3973   -4.0470   -0.0011 C.ar      1 <0>         0.1843
      8 N1          2.4102   -2.6565   -0.1459 N.pl3     1 <0>        -0.6300
      9 C8          1.3626   -2.0172   -0.7886 C.ar      1 <0>         0.5649
     10 N2          0.4236   -2.7461   -1.3749 N.ar      1 <0>        -0.5522
     11 C9         -0.5927   -2.1731   -1.9994 C.ar      1 <0>         0.1930
     12 C10        -0.6718   -0.7920   -2.0380 C.ar      1 <0>        -0.2706
     13 C11         0.3326   -0.0501   -1.4112 C.ar      1 <0>         0.2653
     14 N3          1.3283   -0.6942   -0.8066 N.ar      1 <0>        -0.5592
     15 C12         0.2932    1.4324   -1.4246 C.ar      1 <0>        -0.1155
     16 C13         1.2979    2.1755   -0.7976 C.ar      1 <0>        -0.0278
     17 C14         1.2156    3.5565   -0.8388 C.ar      1 <0>        -0.1782
     18 C15         0.1520    4.1517   -1.4928 C.ar      1 <0>         0.1164
     19 N4         -0.7812    3.4241   -2.0755 N.ar      1 <0>        -0.4847
     20 C16        -0.7426    2.1074   -2.0672 C.ar      1 <0>         0.1330
     21 N5         -0.0291   -6.8116    0.1331 N.am      1 <0>        -0.6686
     22 C17        -0.0687   -8.0922   -0.2852 C.2       1 <0>         0.5615
     23 O1          0.9286   -8.6120   -0.7475 O.2       1 <0>        -0.4942
     24 C18        -1.3220   -8.8632   -0.1822 C.ar      1 <0>        -0.1775
     25 C19        -2.4688   -8.2718    0.3537 C.ar      1 <0>        -0.0469
     26 C20        -3.6375   -8.9961    0.4432 C.ar      1 <0>        -0.1662
     27 C21        -3.6787  -10.3126    0.0132 C.ar      1 <0>        -0.0476
     28 C22        -2.5516  -10.9108   -0.5139 C.ar      1 <0>        -0.2199
     29 C23        -1.3678  -10.1951   -0.6160 C.ar      1 <0>         0.1893
     30 O2         -0.2593  -10.7819   -1.1329 O.3       1 <0>        -0.2813
     31 C24        -0.3817  -12.1419   -1.5540 C.3       1 <0>         0.0199
     32 H1          5.1573   -3.7108    1.1606 H         1 <0>         0.0695
     33 H2          5.6842   -4.6388   -0.2640 H         1 <0>         0.0719
     34 H3          4.8100   -3.1029   -0.4759 H         1 <0>         0.0599
     35 H4          4.5087   -6.6540    0.4053 H         1 <0>         0.1293
     36 H5          2.3753   -7.8780    0.3970 H         1 <0>         0.1418
     37 H6          0.2624   -4.1971   -0.1210 H         1 <0>         0.1512
     38 H7          3.1527   -2.1394    0.2038 H         1 <0>         0.4244
     39 H8         -1.3525   -2.7768   -2.4734 H         1 <0>         0.1747
     40 H9         -1.4908   -0.2992   -2.5407 H         1 <0>         0.1503
     41 H10         2.1172    1.6844   -0.2936 H         1 <0>         0.1467
     42 H11         1.9738    4.1628   -0.3657 H         1 <0>         0.1423
     43 H12         0.0848    5.2290   -1.5272 H         1 <0>         0.1618
     44 H13        -1.5231    1.5460   -2.5591 H         1 <0>         0.1625
     45 H14        -0.8415   -6.3733    0.4310 H         1 <0>         0.4072
     46 H15        -2.4403   -7.2472    0.6939 H         1 <0>         0.1317
     47 H16        -4.5243   -8.5370    0.8544 H         1 <0>         0.1325
     48 H17        -4.5978  -10.8743    0.0912 H         1 <0>         0.1321
     49 H18        -2.5916  -11.9374   -0.8469 H         1 <0>         0.1371
     50 H19        -0.6715  -12.7606   -0.7047 H         1 <0>         0.0576
     51 H20        -1.1414  -12.2143   -2.3323 H         1 <0>         0.0576
     52 H21         0.5745  -12.4882   -1.9463 H         1 <0>         0.1048
@<TRIPOS>BOND
     1    1    2 1
     2    1   32 1
     3    1   33 1
     4    1   34 1
     5    2    7 ar
     6    2    3 ar
     7    3    4 ar
     8    3   35 1
     9    4    5 ar
    10    4   36 1
    11    5    6 ar
    12    5   21 1
    13    6    7 ar
    14    6   37 1
    15    7    8 1
    16    8    9 1
    17    8   38 1
    18    9   14 ar
    19    9   10 ar
    20   10   11 ar
    21   11   12 ar
    22   11   39 1
    23   12   13 ar
    24   12   40 1
    25   13   14 ar
    26   13   15 1
    27   15   20 ar
    28   15   16 ar
    29   16   17 ar
    30   16   41 1
    31   17   18 ar
    32   17   42 1
    33   18   19 ar
    34   18   43 1
    35   19   20 ar
    36   20   44 1
    37   21   22 am
    38   21   45 1
    39   22   23 2
    40   22   24 1
    41   24   29 ar
    42   24   25 ar
    43   25   26 ar
    44   25   46 1
    45   26   27 ar
    46   26   47 1
    47   27   28 ar
    48   27   48 1
    49   28   29 ar
    50   28   49 1
    51   29   30 1
    52   30   31 1
    53   31   50 1
    54   31   51 1
    55   31   52 1
@<TRIPOS>MOLECULE
ZINC03832245
   34    36     0     0     0
SMALL
USER_CHARGES

@<TRIPOS>ATOM
      1 C1         -2.6864    8.2706    0.0649 C.3       1 <0>         0.0221
      2 O1         -3.9211    7.5512    0.0670 O.3       1 <0>        -0.3007
      3 C2         -3.8445    6.1939    0.0579 C.ar      1 <0>         0.1265
      4 C3         -2.6229    5.5866    0.0469 C.ar      1 <0>        -0.1725
      5 C4         -2.5438    4.1835    0.0379 C.ar      1 <0>        -0.0903
      6 C5         -1.3022    3.5259    0.0333 C.ar      1 <0>        -0.0377
      7 C6         -1.2996    2.1382    0.0199 C.ar      1 <0>        -0.1133
      8 C7         -2.5196    1.4442    0.0220 C.ar      1 <0>         0.1458
      9 N1         -3.6666    2.0749    0.0318 N.ar      1 <0>        -0.4679
     10 C8         -3.7337    3.4112    0.0399 C.ar      1 <0>         0.1447
     11 C9         -4.9755    4.0677    0.0510 C.ar      1 <0>        -0.1730
     12 C10        -5.0226    5.4318    0.0595 C.ar      1 <0>         0.1445
     13 O2         -6.2271    6.0604    0.0702 O.3       1 <0>        -0.2998
     14 C11        -7.3913    5.2319    0.0718 C.3       1 <0>         0.0209
     15 C12        -0.0169    1.3938    0.0097 C.ar      1 <0>         0.0070
     16 C13         1.2062    2.0708    0.0017 C.ar      1 <0>        -0.1684
     17 C14         2.3759    1.3394   -0.0139 C.ar      1 <0>         0.1062
     18 N2          2.3497    0.0203   -0.0207 N.ar      1 <0>        -0.4865
     19 C15         1.2174   -0.6568   -0.0131 C.ar      1 <0>         0.1068
     20 C16         0.0021   -0.0041    0.0020 C.ar      1 <0>        -0.1664
     21 H1         -2.1089    8.0040    0.9500 H         1 <0>         0.0588
     22 H2         -2.1187    8.0153   -0.8299 H         1 <0>         0.0587
     23 H3         -2.8899    9.3415    0.0728 H         1 <0>         0.1061
     24 H4         -1.7212    6.1811    0.0451 H         1 <0>         0.1467
     25 H5         -0.3774    4.0838    0.0361 H         1 <0>         0.1428
     26 H6         -2.5118    0.3643    0.0156 H         1 <0>         0.1629
     27 H7         -5.8908    3.4945    0.0530 H         1 <0>         0.1527
     28 H8         -7.3945    4.6080   -0.8220 H         1 <0>         0.0607
     29 H9         -7.3844    4.5971    0.9579 H         1 <0>         0.0608
     30 H10        -8.2832    5.8584    0.0806 H         1 <0>         0.1066
     31 H11         1.2351    3.1504    0.0068 H         1 <0>         0.1362
     32 H12         3.3257    1.8535   -0.0206 H         1 <0>         0.1590
     33 H13         1.2422   -1.7365   -0.0191 H         1 <0>         0.1602
     34 H14        -0.9210   -0.5647    0.0082 H         1 <0>         0.1398
@<TRIPOS>BOND
     1    1    2 1
     2    1   21 1
     3    1   22 1
     4    1   23 1
     5    2    3 1
     6    3   12 ar
     7    3    4 ar
     8    4    5 ar
     9    4   24 1
    10    5   10 ar
    11    5    6 ar
    12    6    7 ar
    13    6   25 1
    14    7    8 ar
    15    7   15 1
    16    8    9 ar
    17    8   26 1
    18    9   10 ar
    19   10   11 ar
    20   11   12 ar
    21   11   27 1
    22   12   13 1
    23   13   14 1
    24   14   28 1
    25   14   29 1
    26   14   30 1
    27   15   20 ar
    28   15   16 ar
    29   16   17 ar
    30   16   31 1
    31   17   18 ar
    32   17   32 1
    33   18   19 ar
    34   19   20 ar
    35   19   33 1
    36   20   34 1
@<TRIPOS>MOLECULE
ZINC03832246
   26    28     0     0     0
SMALL
USER_CHARGES

@<TRIPOS>ATOM
      1 C1         -2.6268    5.5852    0.0453 C.ar      1 <0>        -0.0768
      2 C2         -3.8473    6.1882    0.0548 C.ar      1 <0>        -0.1093
      3 C3         -5.0183    5.4312    0.0556 C.ar      1 <0>        -0.0117
      4 C4         -4.9748    4.0693    0.0476 C.ar      1 <0>        -0.0843
      5 C5         -3.7340    3.4104    0.0380 C.ar      1 <0>         0.1399
      6 C6         -2.5449    4.1826    0.0369 C.ar      1 <0>        -0.1019
      7 C7         -1.3023    3.5253    0.0332 C.ar      1 <0>        -0.0350
      8 C8         -1.2997    2.1382    0.0199 C.ar      1 <0>        -0.1063
      9 C9         -2.5202    1.4439    0.0220 C.ar      1 <0>         0.1549
     10 N1         -3.6670    2.0743    0.0304 N.ar      1 <0>        -0.4656
     11 C10        -0.0169    1.3937    0.0097 C.ar      1 <0>         0.0022
     12 C11         1.2062    2.0707    0.0017 C.ar      1 <0>        -0.1662
     13 C12         2.3759    1.3393   -0.0134 C.ar      1 <0>         0.1068
     14 N2          2.3497    0.0203   -0.0203 N.ar      1 <0>        -0.4844
     15 C13         1.2175   -0.6568   -0.0131 C.ar      1 <0>         0.1074
     16 C14         0.0021   -0.0041    0.0020 C.ar      1 <0>        -0.1646
     17 Cl1        -6.5560    6.2366    0.0674 Cl        1 <0>        -0.0543
     18 H1         -1.7265    6.1817    0.0448 H         1 <0>         0.1437
     19 H2         -3.9094    7.2664    0.0616 H         1 <0>         0.1425
     20 H3         -5.8914    3.4981    0.0490 H         1 <0>         0.1495
     21 H4         -0.3777    4.0833    0.0367 H         1 <0>         0.1476
     22 H5         -2.5123    0.3640    0.0160 H         1 <0>         0.1666
     23 H6          1.2350    3.1503    0.0068 H         1 <0>         0.1373
     24 H7          3.3257    1.8534   -0.0194 H         1 <0>         0.1601
     25 H8          1.2423   -1.7365   -0.0195 H         1 <0>         0.1612
     26 H9         -0.9210   -0.5647    0.0082 H         1 <0>         0.1405
@<TRIPOS>BOND
     1    1    6 ar
     2    1    2 ar
     3    1   18 1
     4    2    3 ar
     5    2   19 1
     6    3    4 ar
     7    3   17 1
     8    4    5 ar
     9    4   20 1
    10    5   10 ar
    11    5    6 ar
    12    6    7 ar
    13    7    8 ar
    14    7   21 1
    15    8    9 ar
    16    8   11 1
    17    9   10 ar
    18    9   22 1
    19   11   16 ar
    20   11   12 ar
    21   12   13 ar
    22   12   23 1
    23   13   14 ar
    24   13   24 1
    25   14   15 ar
    26   15   16 ar
    27   15   25 1
    28   16   26 1
@<TRIPOS>MOLECULE
ZINC03832247
   34    36     0     0     0
SMALL
USER_CHARGES

@<TRIPOS>ATOM
      1 C1          4.7821   -0.1239   -0.0453 C.3       1 <0>         0.0221
      2 O1          4.7843    1.3050   -0.0376 O.3       1 <0>        -0.3011
      3 C2          3.5740    1.9240   -0.0222 C.ar      1 <0>         0.1270
      4 C3          2.4332    1.1759   -0.0149 C.ar      1 <0>        -0.1735
      5 C4          1.1820    1.8157    0.0005 C.ar      1 <0>        -0.0865
      6 C5         -0.0126    1.0758    0.0080 C.ar      1 <0>        -0.0468
      7 C6         -1.2115    1.7740    0.0173 C.ar      1 <0>        -0.1001
      8 C7         -1.1947    3.1773    0.0285 C.ar      1 <0>         0.1404
      9 N1         -0.0712    3.8491    0.0220 N.ar      1 <0>        -0.4669
     10 C8          1.1161    3.2326    0.0083 C.ar      1 <0>         0.1408
     11 C9          2.3097    3.9733    0.0005 C.ar      1 <0>        -0.1717
     12 C10         3.5109    3.3256   -0.0144 C.ar      1 <0>         0.1422
     13 O2          4.6617    4.0481   -0.0214 O.3       1 <0>        -0.3003
     14 C11         4.5342    5.4714   -0.0129 C.3       1 <0>         0.0212
     15 C12        -2.5021    1.0423    0.0193 C.ar      1 <0>        -0.0916
     16 C13        -3.7137    1.7393    0.0287 C.ar      1 <0>        -0.0673
     17 C14        -4.8903    1.0104    0.0297 C.ar      1 <0>        -0.1651
     18 C15        -4.8301   -0.3714    0.0215 C.ar      1 <0>         0.0995
     19 N2         -3.6715   -1.0015    0.0123 N.ar      1 <0>        -0.4797
     20 C16        -2.5261   -0.3507    0.0060 C.ar      1 <0>         0.1087
     21 H1          5.8092   -0.4888   -0.0575 H         1 <0>         0.1058
     22 H2          4.2766   -0.4913    0.8478 H         1 <0>         0.0589
     23 H3          4.2589   -0.4817   -0.9321 H         1 <0>         0.0589
     24 H4          2.4912    0.0975   -0.0213 H         1 <0>         0.1468
     25 H5          0.0021   -0.0041    0.0020 H         1 <0>         0.1426
     26 H6         -2.1309    3.7157    0.0392 H         1 <0>         0.1608
     27 H7          2.2769    5.0528    0.0064 H         1 <0>         0.1520
     28 H8          5.5252    5.9250   -0.0198 H         1 <0>         0.1062
     29 H9          3.9817    5.7920   -0.8962 H         1 <0>         0.0604
     30 H10         3.9982    5.7828    0.8837 H         1 <0>         0.0604
     31 H11        -3.7313    2.8192    0.0354 H         1 <0>         0.1396
     32 H12        -5.8451    1.5152    0.0365 H         1 <0>         0.1407
     33 H13        -5.7463   -0.9434    0.0222 H         1 <0>         0.1592
     34 H14        -1.5974   -0.9018   -0.0055 H         1 <0>         0.1564
@<TRIPOS>BOND
     1    1    2 1
     2    1   21 1
     3    1   22 1
     4    1   23 1
     5    2    3 1
     6    3   12 ar
     7    3    4 ar
     8    4    5 ar
     9    4   24 1
    10    5   10 ar
    11    5    6 ar
    12    6    7 ar
    13    6   25 1
    14    7    8 ar
    15    7   15 1
    16    8    9 ar
    17    8   26 1
    18    9   10 ar
    19   10   11 ar
    20   11   12 ar
    21   11   27 1
    22   12   13 1
    23   13   14 1
    24   14   28 1
    25   14   29 1
    26   14   30 1
    27   15   20 ar
    28   15   16 ar
    29   16   17 ar
    30   16   31 1
    31   17   18 ar
    32   17   32 1
    33   18   19 ar
    34   18   33 1
    35   19   20 ar
    36   20   34 1
@<TRIPOS>MOLECULE
ZINC03832248
   42    44     0     0     0
SMALL
USER_CHARGES

@<TRIPOS>ATOM
      1 C1         -3.6312   -2.6411    0.0030 C.3       1 <0>        -0.1076
      2 C2         -3.6631   -1.1344    0.0120 C.ar      1 <0>        -0.1109
      3 C3         -2.4831   -0.4203    0.0058 C.ar      1 <0>        -0.0710
      4 C4         -2.5135    0.9731    0.0194 C.ar      1 <0>        -0.0767
      5 C5         -3.7373    1.6408    0.0289 C.ar      1 <0>        -0.0737
      6 C6         -4.9136    0.9213    0.0301 C.ar      1 <0>        -0.2009
      7 C7         -4.8801   -0.4668    0.0214 C.ar      1 <0>         0.1315
      8 O1         -6.0409   -1.1730    0.0218 O.3       1 <0>        -0.3122
      9 C8         -7.2569   -0.4225    0.0313 C.3       1 <0>         0.0253
     10 C9         -1.2463    1.7441    0.0175 C.ar      1 <0>        -0.0895
     11 C10        -1.2723    3.1317    0.0315 C.ar      1 <0>        -0.0574
     12 C11        -0.0448    3.8147    0.0231 C.ar      1 <0>        -0.0844
     13 C12         0.0053    5.2196    0.0298 C.ar      1 <0>        -0.1753
     14 C13         1.2138    5.8519    0.0211 C.ar      1 <0>         0.1263
     15 C14         2.4078    5.1143    0.0056 C.ar      1 <0>         0.1382
     16 C15         2.3891    3.7500   -0.0012 C.ar      1 <0>        -0.1695
     17 C16         1.1607    3.0674    0.0074 C.ar      1 <0>         0.1363
     18 N1          1.1213    1.7305    0.0006 N.ar      1 <0>        -0.4674
     19 C17        -0.0126    1.0758    0.0080 C.ar      1 <0>         0.1365
     20 O2          3.5990    5.7680   -0.0032 O.3       1 <0>        -0.3013
     21 C18         4.7802    4.9639   -0.0194 C.3       1 <0>         0.0216
     22 O3          1.2623    7.2104    0.0281 O.3       1 <0>        -0.3017
     23 C19         0.0131    7.9041    0.0439 C.3       1 <0>         0.0227
     24 H1         -3.6282   -2.9983   -1.0268 H         1 <0>         0.0704
     25 H2         -2.7313   -2.9884    0.5107 H         1 <0>         0.0674
     26 H3         -4.5109   -3.0262    0.5187 H         1 <0>         0.0715
     27 H4         -1.5366   -0.9403   -0.0057 H         1 <0>         0.1347
     28 H5         -3.7641    2.7204    0.0350 H         1 <0>         0.1271
     29 H6         -5.8620    1.4380    0.0375 H         1 <0>         0.1318
     30 H7         -8.1058   -1.1062    0.0305 H         1 <0>         0.1021
     31 H8         -7.2926    0.2001    0.9253 H         1 <0>         0.0564
     32 H9         -7.2998    0.2110   -0.8546 H         1 <0>         0.0566
     33 H10        -2.2084    3.6703    0.0434 H         1 <0>         0.1396
     34 H11        -0.9084    5.7952    0.0420 H         1 <0>         0.1448
     35 H12         3.3161    3.1960   -0.0135 H         1 <0>         0.1510
     36 H13         0.0021   -0.0041    0.0020 H         1 <0>         0.1610
     37 H14         5.6588    5.6089   -0.0251 H         1 <0>         0.1055
     38 H15         4.8005    4.3301    0.8672 H         1 <0>         0.0600
     39 H16         4.7823    4.3392   -0.9127 H         1 <0>         0.0600
     40 H17         0.1944    8.9789    0.0480 H         1 <0>         0.1051
     41 H18        -0.5625    7.6362   -0.8420 H         1 <0>         0.0581
     42 H19        -0.5454    7.6264    0.9378 H         1 <0>         0.0581
@<TRIPOS>BOND
     1    1    2 1
     2    1   24 1
     3    1   25 1
     4    1   26 1
     5    2    7 ar
     6    2    3 ar
     7    3    4 ar
     8    3   27 1
     9    4    5 ar
    10    4   10 1
    11    5    6 ar
    12    5   28 1
    13    6    7 ar
    14    6   29 1
    15    7    8 1
    16    8    9 1
    17    9   30 1
    18    9   31 1
    19    9   32 1
    20   10   19 ar
    21   10   11 ar
    22   11   12 ar
    23   11   33 1
    24   12   17 ar
    25   12   13 ar
    26   13   14 ar
    27   13   34 1
    28   14   15 ar
    29   14   22 1
    30   15   16 ar
    31   15   20 1
    32   16   17 ar
    33   16   35 1
    34   17   18 ar
    35   18   19 ar
    36   19   36 1
    37   20   21 1
    38   21   37 1
    39   21   38 1
    40   21   39 1
    41   22   23 1
    42   23   40 1
    43   23   41 1
    44   23   42 1
@<TRIPOS>MOLECULE
ZINC03832249
   37    39     0     0     0
SMALL
USER_CHARGES

@<TRIPOS>ATOM
      1 C1          0.0021   -0.0041    0.0020 C.ar      1 <0>        -0.1143
      2 C2         -0.0167    1.3786    0.0096 C.ar      1 <0>        -0.1002
      3 C3          1.1691    2.0868    0.0021 C.ar      1 <0>        -0.1182
      4 C4          2.3808    1.4090   -0.0135 C.ar      1 <0>         0.1242
      5 C5          2.3963    0.0206   -0.0207 C.ar      1 <0>        -0.1182
      6 C6          1.2072   -0.6820   -0.0126 C.ar      1 <0>        -0.0993
      7 N1          3.5854    2.1246   -0.0221 N.pl3     1 <0>        -0.4468
      8 C7          4.6488    1.9267    0.8061 C.2       1 <0>         0.2781
      9 N2          5.5998    2.7679    0.5210 N.2       1 <0>        -0.4896
     10 C8          5.2137    3.5641   -0.5093 C.ar      1 <0>         0.0890
     11 C9          3.9191    3.1605   -0.8776 C.ar      1 <0>         0.0181
     12 C10         3.2575    3.8075   -1.9112 C.ar      1 <0>        -0.0660
     13 C11         3.8768    4.8387   -2.5844 C.ar      1 <0>        -0.1804
     14 C12         5.1611    5.2407   -2.2293 C.ar      1 <0>         0.1232
     15 C13         5.8307    4.6109   -1.1989 C.ar      1 <0>        -0.1022
     16 O1          5.7602    6.2596   -2.9014 O.3       1 <0>        -0.2987
     17 C14         5.0133    6.8686   -3.9565 C.3       1 <0>         0.0306
     18 C15         5.8442    7.9859   -4.5906 C.3       1 <0>         0.1091
     19 H1          6.8052    7.5855   -4.9134 H         1 <0>         0.1175
     20 C16         5.0969    8.5545   -5.7986 C.3       1 <0>         0.0489
     21 O2          5.9218    9.5161   -6.4595 O.3       1 <0>        -0.5601
     22 O3          6.0584    9.0233   -3.6314 O.3       1 <0>        -0.5408
     23 H2         -0.9264   -0.5556    0.0079 H         1 <0>         0.1315
     24 H3         -0.9595    1.9053    0.0169 H         1 <0>         0.1336
     25 H4          1.1538    3.1667    0.0077 H         1 <0>         0.1291
     26 H5          3.3373   -0.5094   -0.0328 H         1 <0>         0.1319
     27 H6          1.2187   -1.7619   -0.0182 H         1 <0>         0.1347
     28 H7          4.6957    1.1807    1.5857 H         1 <0>         0.2175
     29 H8          2.2606    3.5006   -2.1911 H         1 <0>         0.1271
     30 H9          3.3622    5.3379   -3.3921 H         1 <0>         0.1360
     31 H10         6.8275    4.9260   -0.9275 H         1 <0>         0.1417
     32 H11         4.7746    6.1199   -4.7118 H         1 <0>         0.0745
     33 H12         4.0901    7.2859   -3.5542 H         1 <0>         0.0688
     34 H13         4.8554    7.7468   -6.4895 H         1 <0>         0.0591
     35 H14         4.1769    9.0338   -5.4640 H         1 <0>         0.0533
     36 H15         5.5109    9.9188   -7.2368 H         1 <0>         0.3842
     37 H16         5.2444    9.4263   -3.2996 H         1 <0>         0.3733
@<TRIPOS>BOND
     1    1    6 ar
     2    1    2 ar
     3    1   23 1
     4    2    3 ar
     5    2   24 1
     6    3    4 ar
     7    3   25 1
     8    4    5 ar
     9    4    7 1
    10    5    6 ar
    11    5   26 1
    12    6   27 1
    13    7   11 1
    14    7    8 1
    15    8    9 2
    16    8   28 1
    17    9   10 1
    18   10   15 ar
    19   10   11 ar
    20   11   12 ar
    21   12   13 ar
    22   12   29 1
    23   13   14 ar
    24   13   30 1
    25   14   15 ar
    26   14   16 1
    27   15   31 1
    28   16   17 1
    29   17   18 1
    30   17   32 1
    31   17   33 1
    32   18   19 1
    33   18   20 1
    34   18   22 1
    35   20   21 1
    36   20   34 1
    37   20   35 1
    38   21   36 1
    39   22   37 1
@<TRIPOS>MOLECULE
ZINC03832250
   40    43     0     0     0
SMALL
USER_CHARGES

@<TRIPOS>ATOM
      1 C1          2.2818    6.3663   -2.2119 C.3       1 <0>         0.0693
      2 N1          1.9344    5.6582   -0.9773 N.am      1 <0>        -0.5069
      3 C2          1.4547    6.3630    0.0977 C.ar      1 <0>         0.4607
      4 C3          1.1153    5.6960    1.2948 C.ar      1 <0>        -0.2695
      5 C4          1.2670    4.2942    1.3956 C.2       1 <0>         0.0097
      6 C5          1.7464    3.5993    0.3176 C.2       1 <0>        -0.1486
      7 C6          2.0948    4.3227   -0.9071 C.2       1 <0>         0.5478
      8 O1          2.5270    3.7129   -1.8689 O.2       1 <0>        -0.5012
      9 C7          1.9168    2.1293    0.3917 C.ar      1 <0>        -0.0332
     10 C8          0.8040    1.3022    0.5405 C.ar      1 <0>        -0.1020
     11 C9          0.9690   -0.0661    0.6083 C.ar      1 <0>        -0.1202
     12 C10         2.2353   -0.6177    0.5291 C.ar      1 <0>        -0.1131
     13 C11         3.3431    0.1978    0.3814 C.ar      1 <0>        -0.1190
     14 C12         3.1907    1.5675    0.3123 C.ar      1 <0>        -0.0889
     15 C13         0.6288    6.4539    2.3705 C.ar      1 <0>         0.2611
     16 N2          0.5082    7.7596    2.2198 N.ar      1 <0>        -0.5676
     17 C14         0.8376    8.3535    1.0781 C.ar      1 <0>         0.6055
     18 N3          1.3006    7.6808    0.0359 N.ar      1 <0>        -0.5920
     19 N4          0.6919    9.7242    0.9745 N.pl3     1 <0>        -0.6254
     20 C15         0.1005   10.4425    2.0121 C.ar      1 <0>         0.2032
     21 C16        -0.9168    9.8801    2.7824 C.ar      1 <0>        -0.1668
     22 C17        -1.4728   10.6225    3.8031 C.ar      1 <0>         0.1183
     23 N5         -1.0606   11.8523    4.0474 N.ar      1 <0>        -0.4969
     24 C18        -0.1043   12.4214    3.3379 C.ar      1 <0>         0.1210
     25 C19         0.5066   11.7443    2.3032 C.ar      1 <0>        -0.2012
     26 H1          3.3278    6.6705   -2.1742 H         1 <0>         0.0747
     27 H2          2.1259    5.7064   -3.0654 H         1 <0>         0.0926
     28 H3          1.6502    7.2487   -2.3147 H         1 <0>         0.0947
     29 H4          1.0085    3.7791    2.3089 H         1 <0>         0.1525
     30 H5         -0.1854    1.7314    0.5980 H         1 <0>         0.1235
     31 H6          0.1080   -0.7077    0.7232 H         1 <0>         0.1255
     32 H7          2.3595   -1.6891    0.5830 H         1 <0>         0.1237
     33 H8          4.3291   -0.2385    0.3204 H         1 <0>         0.1250
     34 H9          4.0562    2.2030    0.1967 H         1 <0>         0.1203
     35 H10         0.3591    5.9791    3.3022 H         1 <0>         0.1900
     36 H11         1.0013   10.1861    0.1796 H         1 <0>         0.4294
     37 H12        -1.2619    8.8760    2.5848 H         1 <0>         0.1459
     38 H13        -2.2587   10.1937    4.4073 H         1 <0>         0.1597
     39 H14         0.2036   13.4301    3.5702 H         1 <0>         0.1605
     40 H15         1.2884   12.2160    1.7262 H         1 <0>         0.1379
@<TRIPOS>BOND
     1    1    2 1
     2    1   26 1
     3    1   27 1
     4    1   28 1
     5    2    7 am
     6    2    3 1
     7    3   18 ar
     8    3    4 ar
     9    4    5 1
    10    4   15 ar
    11    5    6 2
    12    5   29 1
    13    6    7 1
    14    6    9 1
    15    7    8 2
    16    9   14 ar
    17    9   10 ar
    18   10   11 ar
    19   10   30 1
    20   11   12 ar
    21   11   31 1
    22   12   13 ar
    23   12   32 1
    24   13   14 ar
    25   13   33 1
    26   14   34 1
    27   15   16 ar
    28   15   35 1
    29   16   17 ar
    30   17   18 ar
    31   17   19 1
    32   19   20 1
    33   19   36 1
    34   20   25 ar
    35   20   21 ar
    36   21   22 ar
    37   21   37 1
    38   22   23 ar
    39   22   38 1
    40   23   24 ar
    41   24   25 ar
    42   24   39 1
    43   25   40 1
@<TRIPOS>MOLECULE
ZINC03832251
   34    37     0     0     0
SMALL
USER_CHARGES

@<TRIPOS>ATOM
      1 C1          2.4910   -7.2782   -0.0624 C.ar      1 <0>        -0.1142
      2 C2          1.4660   -7.2662    0.8657 C.ar      1 <0>        -0.0994
      3 C3          0.5603   -6.2236    0.8829 C.ar      1 <0>        -0.1181
      4 C4          0.6798   -5.1869   -0.0329 C.ar      1 <0>         0.1238
      5 C5          1.7070   -5.2044   -0.9669 C.ar      1 <0>        -0.1181
      6 C6          2.6130   -6.2469   -0.9754 C.ar      1 <0>        -0.1001
      7 N1         -0.2377   -4.1280   -0.0183 N.pl3     1 <0>        -0.4465
      8 C7         -1.5958   -4.2356   -0.0061 C.2       1 <0>         0.2782
      9 N2         -2.1376   -3.0526    0.0056 N.2       1 <0>        -0.4899
     10 C8         -1.1661   -2.1034    0.0019 C.ar      1 <0>         0.0885
     11 C9          0.0667   -2.7776   -0.0135 C.ar      1 <0>         0.0187
     12 C10         1.2523   -2.0572   -0.0209 C.ar      1 <0>        -0.0653
     13 C11         1.2191   -0.6792   -0.0132 C.ar      1 <0>        -0.1789
     14 C12         0.0021   -0.0041    0.0020 C.ar      1 <0>         0.1251
     15 C13        -1.1867   -0.7065    0.0153 C.ar      1 <0>        -0.1026
     16 O1         -0.0164    1.3555    0.0095 O.3       1 <0>        -0.3079
     17 C14         1.2479    2.0215    0.0010 C.3       1 <0>         0.0726
     18 C15         1.0269    3.5354    0.0112 C.3       1 <0>        -0.0103
     19 H1          0.0967    3.8807   -0.4399 H         1 <0>         0.1390
     20 C16         2.2572    4.4364   -0.1137 C.3       1 <0>        -0.0226
     21 O2          1.5475    4.2769    1.1164 O.3       1 <0>        -0.3503
     22 H2          3.1980   -8.0945   -0.0739 H         1 <0>         0.1316
     23 H3          1.3733   -8.0731    1.5776 H         1 <0>         0.1347
     24 H4         -0.2399   -6.2146    1.6082 H         1 <0>         0.1319
     25 H5          1.8001   -4.4015   -1.6832 H         1 <0>         0.1293
     26 H6          3.4150   -6.2587   -1.6986 H         1 <0>         0.1337
     27 H7         -2.1428   -5.1668   -0.0068 H         1 <0>         0.2175
     28 H8          2.1998   -2.5752   -0.0324 H         1 <0>         0.1278
     29 H9          2.1430   -0.1200   -0.0187 H         1 <0>         0.1376
     30 H10        -2.1285   -0.1782    0.0319 H         1 <0>         0.1415
     31 H11         1.8173    1.7315    0.8840 H         1 <0>         0.0752
     32 H12         1.8003    1.7410   -0.8958 H         1 <0>         0.0845
     33 H13         3.2315    3.9560   -0.2039 H         1 <0>         0.1140
     34 H14         2.1435    5.3802   -0.6469 H         1 <0>         0.1190
@<TRIPOS>BOND
     1    1    6 ar
     2    1    2 ar
     3    1   22 1
     4    2    3 ar
     5    2   23 1
     6    3    4 ar
     7    3   24 1
     8    4    5 ar
     9    4    7 1
    10    5    6 ar
    11    5   25 1
    12    6   26 1
    13    7   11 1
    14    7    8 1
    15    8    9 2
    16    8   27 1
    17    9   10 1
    18   10   15 ar
    19   10   11 ar
    20   11   12 ar
    21   12   13 ar
    22   12   28 1
    23   13   14 ar
    24   13   29 1
    25   14   15 ar
    26   14   16 1
    27   15   30 1
    28   16   17 1
    29   17   18 1
    30   17   31 1
    31   17   32 1
    32   18   19 1
    33   18   21 1
    34   18   20 1
    35   20   21 1
    36   20   33 1
    37   20   34 1
@<TRIPOS>MOLECULE
ZINC03832252
   33    35     0     0     0
SMALL
USER_CHARGES

@<TRIPOS>ATOM
      1 C1         -0.0127    1.0858    0.0080 C.3       1 <0>         0.0251
      2 O1         -0.6816    1.5467    1.1837 O.3       1 <0>        -0.3138
      3 C2         -0.1485    1.1819    2.3802 C.ar      1 <0>         0.1311
      4 C3          0.9893    0.4004    2.4148 C.ar      1 <0>        -0.1634
      5 C4          1.5358    0.0264    3.6451 C.ar      1 <0>         0.0865
      6 C5          0.9195    0.4512    4.8343 C.ar      1 <0>         0.0170
      7 C6         -0.2234    1.2359    4.7824 C.ar      1 <0>        -0.0454
      8 C7         -0.7499    1.6034    3.5625 C.ar      1 <0>        -0.0995
      9 C8         -1.9875    2.4615    3.5088 C.3       1 <0>         0.1304
     10 O2         -2.4158    2.7635    4.8382 O.3       1 <0>        -0.5730
     11 N1          1.6810   -0.0712    5.8656 N.pl3     1 <0>        -0.4438
     12 C9          2.7014   -0.7731    5.2982 C.2       1 <0>         0.2749
     13 N2          2.6161   -0.7157    4.0010 N.2       1 <0>        -0.4935
     14 C10         1.4457    0.0911    7.2373 C.ar      1 <0>         0.1230
     15 C11         1.2326    1.3591    7.7613 C.ar      1 <0>        -0.1147
     16 C12         0.9957    1.5152    9.1130 C.ar      1 <0>        -0.0993
     17 C13         0.9819    0.4115    9.9460 C.ar      1 <0>        -0.1141
     18 C14         1.1990   -0.8520    9.4279 C.ar      1 <0>        -0.1005
     19 C15         1.4308   -1.0153    8.0762 C.ar      1 <0>        -0.1182
     20 H1          0.0021   -0.0041    0.0020 H         1 <0>         0.0580
     21 H2          1.0099    1.4631    0.0003 H         1 <0>         0.0580
     22 H3         -0.5399    1.4469   -0.8751 H         1 <0>         0.1024
     23 H4          1.4551    0.0797    1.4947 H         1 <0>         0.1397
     24 H5         -0.6972    1.5624    5.6963 H         1 <0>         0.1420
     25 H6         -1.7645    3.3880    2.9797 H         1 <0>         0.0644
     26 H7         -2.7789    1.9254    2.9851 H         1 <0>         0.0643
     27 H8         -3.2096    3.3142    4.8802 H         1 <0>         0.3858
     28 H9          3.4693   -1.3000    5.8451 H         1 <0>         0.2167
     29 H10         1.2476    2.2219    7.1119 H         1 <0>         0.1296
     30 H11         0.8258    2.5008    9.5206 H         1 <0>         0.1338
     31 H12         0.8009    0.5366   11.0034 H         1 <0>         0.1313
     32 H13         1.1870   -1.7122   10.0809 H         1 <0>         0.1341
     33 H14         1.6000   -2.0024    7.6720 H         1 <0>         0.1311
@<TRIPOS>BOND
     1    1    2 1
     2    1   20 1
     3    1   21 1
     4    1   22 1
     5    2    3 1
     6    3    8 ar
     7    3    4 ar
     8    4    5 ar
     9    4   23 1
    10    5   13 1
    11    5    6 ar
    12    6    7 ar
    13    6   11 1
    14    7    8 ar
    15    7   24 1
    16    8    9 1
    17    9   10 1
    18    9   25 1
    19    9   26 1
    20   10   27 1
    21   11   12 1
    22   11   14 1
    23   12   13 2
    24   12   28 1
    25   14   19 ar
    26   14   15 ar
    27   15   16 ar
    28   15   29 1
    29   16   17 ar
    30   16   30 1
    31   17   18 ar
    32   17   31 1
    33   18   19 ar
    34   18   32 1
    35   19   33 1
@<TRIPOS>MOLECULE
ZINC03832253
   30    32     0     0     0
SMALL
USER_CHARGES

@<TRIPOS>ATOM
      1 C1          3.4867   -2.0848   -0.0440 C.3       1 <0>         0.0235
      2 O1          3.5738   -0.6584   -0.0367 O.3       1 <0>        -0.3138
      3 C2          2.4029    0.0311   -0.0210 C.ar      1 <0>         0.1338
      4 C3          1.1903   -0.6654   -0.0128 C.ar      1 <0>        -0.1698
      5 C4          0.0021   -0.0041    0.0020 C.ar      1 <0>        -0.0505
      6 C5         -0.0170    1.4021    0.0098 C.ar      1 <0>         0.0997
      7 C6          1.2125    2.1084    0.0018 C.ar      1 <0>        -0.0607
      8 C7          2.4233    1.3969   -0.0139 C.ar      1 <0>        -0.1453
      9 C8          1.1941    3.5141    0.0094 C.ar      1 <0>        -0.0472
     10 C9         -0.0393    4.1489    0.0245 C.ar      1 <0>        -0.0985
     11 C10        -1.2132    3.3792    0.0317 C.ar      1 <0>         0.1364
     12 N1         -1.1750    2.0710    0.0189 N.ar      1 <0>        -0.4592
     13 C11        -0.1171    5.6301    0.0326 C.ar      1 <0>         0.0031
     14 C12         1.0430    6.4101    0.0310 C.ar      1 <0>        -0.1660
     15 C13         0.9252    7.7848    0.0334 C.ar      1 <0>         0.1060
     16 N2         -0.2606    8.3628    0.0478 N.ar      1 <0>        -0.4852
     17 C14        -1.3793    7.6636    0.0549 C.ar      1 <0>         0.1062
     18 C15        -1.3524    6.2842    0.0478 C.ar      1 <0>        -0.1645
     19 H1          2.9428   -2.4111   -0.9304 H         1 <0>         0.0585
     20 H2          4.4903   -2.5100   -0.0565 H         1 <0>         0.1042
     21 H3          2.9607   -2.4212    0.8495 H         1 <0>         0.0585
     22 H4          1.1976   -1.7453   -0.0187 H         1 <0>         0.1401
     23 H5         -0.9252   -0.5577    0.0075 H         1 <0>         0.1437
     24 H6          3.3646    1.9262   -0.0200 H         1 <0>         0.1405
     25 H7          2.1124    4.0825    0.0040 H         1 <0>         0.1453
     26 H8         -2.1708    3.8784    0.0432 H         1 <0>         0.1632
     27 H9          2.0170    5.9436    0.0238 H         1 <0>         0.1375
     28 H10         1.8158    8.3958    0.0281 H         1 <0>         0.1597
     29 H11        -2.3290    8.1779    0.0666 H         1 <0>         0.1606
     30 H12        -2.2722    5.7181    0.0537 H         1 <0>         0.1402
@<TRIPOS>BOND
     1    1    2 1
     2    1   19 1
     3    1   20 1
     4    1   21 1
     5    2    3 1
     6    3    8 ar
     7    3    4 ar
     8    4    5 ar
     9    4   22 1
    10    5    6 ar
    11    5   23 1
    12    6   12 ar
    13    6    7 ar
    14    7    8 ar
    15    7    9 ar
    16    8   24 1
    17    9   10 ar
    18    9   25 1
    19   10   11 ar
    20   10   13 1
    21   11   12 ar
    22   11   26 1
    23   13   18 ar
    24   13   14 ar
    25   14   15 ar
    26   14   27 1
    27   15   16 ar
    28   15   28 1
    29   16   17 ar
    30   17   18 ar
    31   17   29 1
    32   18   30 1
@<TRIPOS>MOLECULE
ZINC03832254
   38    40     0     0     0
SMALL
USER_CHARGES

@<TRIPOS>ATOM
      1 C1          1.0981   -4.8522    0.1982 C.3       1 <0>         0.0200
      2 O1          2.3628   -4.1969    0.0828 O.3       1 <0>        -0.2980
      3 C2          2.3515   -2.8393    0.0300 C.ar      1 <0>         0.1527
      4 C3          1.1516   -2.1669    0.0884 C.ar      1 <0>        -0.1980
      5 C4          1.1302   -0.7648    0.0341 C.ar      1 <0>         0.1788
      6 C5          2.3539   -0.0561   -0.0811 C.ar      1 <0>        -0.1383
      7 C6          2.3289    1.3462   -0.1352 C.ar      1 <0>        -0.0142
      8 C7          1.0951    1.9799   -0.0738 C.ar      1 <0>        -0.1239
      9 C8         -0.0727    1.2101    0.0400 C.ar      1 <0>         0.1647
     10 N1         -0.0290   -0.0973    0.0894 N.ar      1 <0>        -0.4743
     11 C9          1.0119    3.4594   -0.1284 C.ar      1 <0>         0.0074
     12 C10         2.1667    4.2402   -0.2358 C.ar      1 <0>        -0.1681
     13 C11         2.0437    5.6132   -0.2882 C.ar      1 <0>         0.1073
     14 N2          0.8584    6.1897   -0.2283 N.ar      1 <0>        -0.4861
     15 C12        -0.2551    5.4901   -0.1217 C.ar      1 <0>         0.1072
     16 C13        -0.2231    4.1120   -0.0681 C.ar      1 <0>        -0.1670
     17 C14         3.5710   -0.7644   -0.1387 C.ar      1 <0>         0.1400
     18 C15         3.5604   -2.1421   -0.0836 C.ar      1 <0>         0.0611
     19 O2          4.7338   -2.8293   -0.1394 O.3       1 <0>        -0.3182
     20 C16         5.1988   -3.2148   -1.4345 C.3       1 <0>         0.0370
     21 O3          4.7477   -0.0937   -0.2489 O.3       1 <0>        -0.3241
     22 C17         5.4361    0.2125    0.9653 C.3       1 <0>         0.0343
     23 H1          0.4773   -4.5976   -0.6609 H         1 <0>         0.0617
     24 H2          1.2495   -5.9312    0.2300 H         1 <0>         0.1075
     25 H3          0.6029   -4.5276    1.1133 H         1 <0>         0.0625
     26 H4          0.2272   -2.7183    0.1763 H         1 <0>         0.1521
     27 H5          3.2425    1.9155   -0.2225 H         1 <0>         0.1475
     28 H6         -1.0302    1.7077    0.0832 H         1 <0>         0.1663
     29 H7          3.1404    3.7751   -0.2810 H         1 <0>         0.1365
     30 H8          2.9297    6.2246   -0.3756 H         1 <0>         0.1595
     31 H9         -1.2043    6.0032   -0.0754 H         1 <0>         0.1604
     32 H10        -1.1386    3.5456    0.0188 H         1 <0>         0.1397
     33 H11         6.1756   -3.6897   -1.3433 H         1 <0>         0.0977
     34 H12         4.4937   -3.9167   -1.8797 H         1 <0>         0.0489
     35 H13         5.2818   -2.3319   -2.0684 H         1 <0>         0.0503
     36 H14         6.3157    0.8164    0.7420 H         1 <0>         0.1019
     37 H15         4.7731    0.7678    1.6287 H         1 <0>         0.0486
     38 H16         5.7447   -0.7130    1.4514 H         1 <0>         0.0585
@<TRIPOS>BOND
     1    1    2 1
     2    1   23 1
     3    1   24 1
     4    1   25 1
     5    2    3 1
     6    3   18 ar
     7    3    4 ar
     8    4    5 ar
     9    4   26 1
    10    5   10 ar
    11    5    6 ar
    12    6    7 ar
    13    6   17 ar
    14    7    8 ar
    15    7   27 1
    16    8    9 ar
    17    8   11 1
    18    9   10 ar
    19    9   28 1
    20   11   16 ar
    21   11   12 ar
    22   12   13 ar
    23   12   29 1
    24   13   14 ar
    25   13   30 1
    26   14   15 ar
    27   15   16 ar
    28   15   31 1
    29   16   32 1
    30   17   18 ar
    31   17   21 1
    32   18   19 1
    33   19   20 1
    34   20   33 1
    35   20   34 1
    36   20   35 1
    37   21   22 1
    38   22   36 1
    39   22   37 1
    40   22   38 1
@<TRIPOS>MOLECULE
ZINC03832255
   27    30     0     0     0
SMALL
USER_CHARGES

@<TRIPOS>ATOM
      1 C1          7.1020   -3.2534    3.9555 C.2       1 <0>        -0.1527
      2 C2          8.3330   -3.3715    4.5023 C.2       1 <0>        -0.1653
      3 S1          9.0088   -1.7361    4.2697 S.3       1 <0>         0.0569
      4 C3          7.6077   -0.9931    3.4506 C.2       1 <0>        -0.1662
      5 C4          6.7184   -2.0305    3.4133 C.2       1 <0>        -0.0807
      6 C5          5.3770   -1.8584    2.8033 C.ar      1 <0>        -0.0758
      7 C6          5.0055   -0.6341    2.2657 C.ar      1 <0>        -0.0479
      8 C7          3.7245   -0.5235    1.6996 C.ar      1 <0>        -0.0831
      9 C8          3.2805    0.6847    1.1358 C.ar      1 <0>        -0.0903
     10 C9          2.0300    0.7617    0.5957 C.ar      1 <0>         0.0484
     11 C10         1.1794   -0.3577    0.5974 C.ar      1 <0>         0.0626
     12 C11         1.5872   -1.5434    1.1371 C.ar      1 <0>        -0.0861
     13 C12         2.8692   -1.6549    1.7009 C.ar      1 <0>         0.1406
     14 N1          3.2845   -2.8090    2.2340 N.ar      1 <0>        -0.4632
     15 C13         4.4749   -2.9324    2.7651 C.ar      1 <0>         0.1455
     16 O1          0.0021   -0.0041    0.0020 O.3       1 <0>        -0.3020
     17 C14        -0.0174    1.4350    0.0099 C.3       1 <0>         0.2102
     18 O2          1.3746    1.8007   -0.0014 O.3       1 <0>        -0.3033
     19 H1          6.4266   -4.0960    3.9393 H         1 <0>         0.1402
     20 H2          8.7906   -4.2350    4.9621 H         1 <0>         0.1903
     21 H3          7.4922    0.0152    3.0811 H         1 <0>         0.1883
     22 H4          5.6811    0.2084    2.2818 H         1 <0>         0.1440
     23 H5          3.9273    1.5496    1.1297 H         1 <0>         0.1456
     24 H6          0.9243   -2.3961    1.1303 H         1 <0>         0.1508
     25 H7          4.7692   -3.8832    3.1844 H         1 <0>         0.1644
     26 H8         -0.5199    1.8155   -0.8794 H         1 <0>         0.1380
     27 H9         -0.5028    1.8059    0.9127 H         1 <0>         0.0911
@<TRIPOS>BOND
     1    1    5 1
     2    1    2 2
     3    1   19 1
     4    2    3 1
     5    2   20 1
     6    3    4 1
     7    4    5 2
     8    4   21 1
     9    5    6 1
    10    6   15 ar
    11    6    7 ar
    12    7    8 ar
    13    7   22 1
    14    8   13 ar
    15    8    9 ar
    16    9   10 ar
    17    9   23 1
    18   10   18 1
    19   10   11 ar
    20   11   12 ar
    21   11   16 1
    22   12   13 ar
    23   12   24 1
    24   13   14 ar
    25   14   15 ar
    26   15   25 1
    27   16   17 1
    28   17   18 1
    29   17   26 1
    30   17   27 1
@<TRIPOS>MOLECULE
ZINC03832256
   45    47     0     0     0
SMALL
USER_CHARGES

@<TRIPOS>ATOM
      1 C1          4.7725    0.1638   -0.0424 C.3       1 <0>         0.0268
      2 O1          3.5855   -0.6319   -0.0353 O.3       1 <0>        -0.3186
      3 C2          2.3989    0.0304   -0.0208 C.ar      1 <0>         0.1235
      4 C3          1.2070   -0.6796   -0.0132 C.ar      1 <0>        -0.1498
      5 C4          0.0021   -0.0041    0.0020 C.ar      1 <0>        -0.0763
      6 C5         -0.0167    1.3784    0.0096 C.ar      1 <0>        -0.1211
      7 C6          1.1698    2.0883    0.0021 C.ar      1 <0>        -0.0752
      8 C7          2.3774    1.4175   -0.0131 C.ar      1 <0>        -0.2058
      9 C8         -1.3326    2.1128    0.0199 C.3       1 <0>        -0.0702
     10 C9         -1.7711    2.3535    1.4658 C.3       1 <0>        -0.0702
     11 C10        -3.0870    3.0879    1.4760 C.ar      1 <0>        -0.1371
     12 C11        -4.2609    2.3880    1.4778 C.ar      1 <0>        -0.0568
     13 C12        -5.4663    3.1127    1.4879 C.ar      1 <0>        -0.0879
     14 C13        -6.7101    2.4593    1.4908 C.ar      1 <0>        -0.1747
     15 C14        -7.8587    3.1948    1.5012 C.ar      1 <0>         0.1248
     16 C15        -7.8114    4.5976    1.5084 C.ar      1 <0>         0.1373
     17 C16        -6.6179    5.2584    1.5058 C.ar      1 <0>        -0.1703
     18 C17        -5.4162    4.5296    1.4958 C.ar      1 <0>         0.1348
     19 N1         -4.2336    5.1529    1.4941 N.ar      1 <0>        -0.4702
     20 C18        -3.1079    4.4798    1.4895 C.ar      1 <0>         0.1331
     21 O2         -8.9702    5.3071    1.5177 O.3       1 <0>        -0.3018
     22 C19        -8.8586    6.7318    1.5247 C.3       1 <0>         0.0220
     23 O3         -9.0621    2.5625    1.5040 O.3       1 <0>        -0.3023
     24 C20        -9.0443    1.1337    1.4958 C.3       1 <0>         0.0230
     25 H1          5.6464   -0.4875   -0.0539 H         1 <0>         0.1010
     26 H2          4.7798    0.7974   -0.9293 H         1 <0>         0.0558
     27 H3          4.7965    0.7884    0.8506 H         1 <0>         0.0559
     28 H4          1.2211   -1.7595   -0.0195 H         1 <0>         0.1305
     29 H5         -0.9260   -0.5563    0.0083 H         1 <0>         0.1285
     30 H6          1.1525    3.1682    0.0077 H         1 <0>         0.1253
     31 H7          3.3039    1.9724   -0.0187 H         1 <0>         0.1280
     32 H8         -1.2185    3.0698   -0.4893 H         1 <0>         0.0742
     33 H9         -2.0860    1.5155   -0.4937 H         1 <0>         0.0731
     34 H10        -1.8851    1.3965    1.9750 H         1 <0>         0.0770
     35 H11        -1.0176    2.9508    1.9793 H         1 <0>         0.0788
     36 H12        -4.2629    1.3080    1.4719 H         1 <0>         0.1372
     37 H13        -6.7564    1.3803    1.4853 H         1 <0>         0.1445
     38 H14        -6.5965    6.3382    1.5119 H         1 <0>         0.1500
     39 H15        -2.1725    5.0196    1.4921 H         1 <0>         0.1577
     40 H16        -8.3137    7.0491    2.4139 H         1 <0>         0.0597
     41 H17        -8.3221    7.0586    0.6339 H         1 <0>         0.0597
     42 H18        -9.8547    7.1742    1.5318 H         1 <0>         0.1053
     43 H19        -8.5307    0.7819    0.6010 H         1 <0>         0.0580
     44 H20        -8.5212    0.7718    2.3809 H         1 <0>         0.0580
     45 H21       -10.0673    0.7575    1.4991 H         1 <0>         0.1049
@<TRIPOS>BOND
     1    1    2 1
     2    1   25 1
     3    1   26 1
     4    1   27 1
     5    2    3 1
     6    3    8 ar
     7    3    4 ar
     8    4    5 ar
     9    4   28 1
    10    5    6 ar
    11    5   29 1
    12    6    7 ar
    13    6    9 1
    14    7    8 ar
    15    7   30 1
    16    8   31 1
    17    9   10 1
    18    9   32 1
    19    9   33 1
    20   10   11 1
    21   10   34 1
    22   10   35 1
    23   11   20 ar
    24   11   12 ar
    25   12   13 ar
    26   12   36 1
    27   13   18 ar
    28   13   14 ar
    29   14   15 ar
    30   14   37 1
    31   15   16 ar
    32   15   23 1
    33   16   17 ar
    34   16   21 1
    35   17   18 ar
    36   17   38 1
    37   18   19 ar
    38   19   20 ar
    39   20   39 1
    40   21   22 1
    41   22   40 1
    42   22   41 1
    43   22   42 1
    44   23   24 1
    45   24   43 1
    46   24   44 1
    47   24   45 1
@<TRIPOS>MOLECULE
ZINC03832257
   41    44     0     0     0
SMALL
USER_CHARGES

@<TRIPOS>ATOM
      1 C1         -0.0216    1.1838   -0.1330 C.3       1 <0>        -0.1626
      2 C2         -0.6316    1.4966    1.2348 C.3       1 <0>         0.0970
      3 N1          0.2218    0.9419    2.2885 N.am      1 <0>        -0.5042
      4 C3          1.2315    1.7061    2.8174 C.ar      1 <0>         0.4628
      5 C4          2.0626    1.1866    3.8330 C.ar      1 <0>        -0.2752
      6 C5          1.8609   -0.1280    4.3146 C.2       1 <0>         0.0119
      7 C6          0.8517   -0.8823    3.7812 C.2       1 <0>        -0.1374
      8 C7          0.0039   -0.3110    2.7323 C.2       1 <0>         0.5488
      9 O1         -0.9002   -0.9740    2.2558 O.2       1 <0>        -0.5036
     10 C8          0.6145   -2.2634    4.2650 C.2       1 <0>        -0.0718
     11 C9          1.5647   -3.2609    4.0653 C.2       1 <0>        -0.1435
     12 C10         1.3140   -4.5074    4.5252 C.2       1 <0>        -0.1731
     13 S1         -0.3028   -4.3226    5.2581 S.3       1 <0>         0.0486
     14 C11        -0.5453   -2.5883    4.9128 C.2       1 <0>        -0.1417
     15 C12         3.0828    2.0004    4.3469 C.ar      1 <0>         0.2597
     16 N2          3.2245    3.2192    3.8600 N.ar      1 <0>        -0.5674
     17 C13         2.4233    3.6750    2.9036 C.ar      1 <0>         0.6058
     18 N3          1.4471    2.9443    2.3876 N.ar      1 <0>        -0.5945
     19 N4          2.6161    4.9591    2.4294 N.pl3     1 <0>        -0.6274
     20 C14         3.5620    5.7927    3.0333 C.ar      1 <0>         0.1554
     21 C15         3.7905    5.7098    4.4010 C.ar      1 <0>        -0.1101
     22 C16         4.7297    6.5308    4.9935 C.ar      1 <0>        -0.1006
     23 C17         5.4345    7.4422    4.2287 C.ar      1 <0>        -0.1332
     24 C18         5.2050    7.5316    2.8679 C.ar      1 <0>        -0.0995
     25 C19         4.2713    6.7096    2.2681 C.ar      1 <0>        -0.1442
     26 H1          0.0548    0.1038   -0.2583 H         1 <0>         0.0602
     27 H2          0.9715    1.6283   -0.1981 H         1 <0>         0.0594
     28 H3         -0.6566    1.5965   -0.9169 H         1 <0>         0.0769
     29 H4         -0.7081    2.5767    1.3602 H         1 <0>         0.1003
     30 H5         -1.6247    1.0521    1.3000 H         1 <0>         0.0976
     31 H6          2.4938   -0.5301    5.0918 H         1 <0>         0.1501
     32 H7          2.4902   -3.0414    3.5537 H         1 <0>         0.1347
     33 H8          1.9324   -5.3905    4.4616 H         1 <0>         0.1880
     34 H9         -1.3890   -1.9585    5.1533 H         1 <0>         0.1841
     35 H10         3.7388    1.6374    5.1243 H         1 <0>         0.1872
     36 H11         2.0950    5.2817    1.6775 H         1 <0>         0.4259
     37 H12         3.2372    5.0013    4.9996 H         1 <0>         0.1340
     38 H13         4.9108    6.4640    6.0561 H         1 <0>         0.1261
     39 H14         6.1655    8.0859    4.6952 H         1 <0>         0.1238
     40 H15         5.7569    8.2447    2.2735 H         1 <0>         0.1269
     41 H16         4.0926    6.7799    1.2053 H         1 <0>         0.1249
@<TRIPOS>BOND
     1    1    2 1
     2    1   26 1
     3    1   27 1
     4    1   28 1
     5    2    3 1
     6    2   29 1
     7    2   30 1
     8    3    8 am
     9    3    4 1
    10    4   18 ar
    11    4    5 ar
    12    5    6 1
    13    5   15 ar
    14    6    7 2
    15    6   31 1
    16    7    8 1
    17    7   10 1
    18    8    9 2
    19   10   14 2
    20   10   11 1
    21   11   12 2
    22   11   32 1
    23   12   13 1
    24   12   33 1
    25   13   14 1
    26   14   34 1
    27   15   16 ar
    28   15   35 1
    29   16   17 ar
    30   17   18 ar
    31   17   19 1
    32   19   20 1
    33   19   36 1
    34   20   25 ar
    35   20   21 ar
    36   21   22 ar
    37   21   37 1
    38   22   23 ar
    39   22   38 1
    40   23   24 ar
    41   23   39 1
    42   24   25 ar
    43   24   40 1
    44   25   41 1
@<TRIPOS>MOLECULE
ZINC03832258
   39    41     0     0     0
SMALL
USER_CHARGES

@<TRIPOS>ATOM
      1 C1         -3.4049    3.7848    0.0395 C.ar      1 <0>        -0.1144
      2 C2         -3.2972    2.7615   -0.8843 C.ar      1 <0>        -0.0995
      3 C3         -2.1756    1.9556   -0.8967 C.ar      1 <0>        -0.1183
      4 C4         -1.1555    2.1739    0.0196 C.ar      1 <0>         0.1243
      5 C5         -1.2691    3.1986    0.9496 C.ar      1 <0>        -0.1180
      6 C6         -2.3904    4.0050    0.9530 C.ar      1 <0>        -0.1001
      7 N1         -0.0164    1.3581    0.0095 N.pl3     1 <0>        -0.4467
      8 C7          0.0021   -0.0041    0.0020 C.2       1 <0>         0.2772
      9 N2          1.2301   -0.4342   -0.0120 N.2       1 <0>        -0.4904
     10 C8          2.0853    0.6208   -0.0145 C.ar      1 <0>         0.0882
     11 C9          1.3001    1.7861   -0.0008 C.ar      1 <0>         0.0175
     12 C10         1.9078    3.0332    0.0006 C.ar      1 <0>        -0.0661
     13 C11         3.2830    3.1275   -0.0120 C.ar      1 <0>        -0.1787
     14 C12         4.0676    1.9781   -0.0261 C.ar      1 <0>         0.1262
     15 C13         3.4782    0.7294   -0.0272 C.ar      1 <0>        -0.1059
     16 O1          5.4231    2.0854   -0.0385 O.3       1 <0>        -0.3125
     17 C14         5.9693    3.4059   -0.0366 C.3       1 <0>         0.0605
     18 C15         7.4972    3.3258   -0.0516 C.3       1 <0>        -0.1172
     19 C16         8.0821    4.7396   -0.0496 C.3       1 <0>        -0.1185
     20 C17         9.6099    4.6594   -0.0646 C.3       1 <0>         0.0757
     21 O2         10.1562    5.9799   -0.0627 O.3       1 <0>        -0.5764
     22 H1         -4.2829    4.4137    0.0472 H         1 <0>         0.1315
     23 H2         -4.0909    2.5924   -1.5970 H         1 <0>         0.1346
     24 H3         -2.0920    1.1567   -1.6187 H         1 <0>         0.1318
     25 H4         -0.4793    3.3680    1.6665 H         1 <0>         0.1292
     26 H5         -2.4774    4.8050    1.6733 H         1 <0>         0.1336
     27 H6         -0.8746   -0.6349    0.0070 H         1 <0>         0.2171
     28 H7          1.3044    3.9288    0.0119 H         1 <0>         0.1270
     29 H8          3.7544    4.0992   -0.0106 H         1 <0>         0.1378
     30 H9          4.0913   -0.1596   -0.0382 H         1 <0>         0.1403
     31 H10         5.6250    3.9428   -0.9205 H         1 <0>         0.0645
     32 H11         5.6420    3.9333    0.8594 H         1 <0>         0.0645
     33 H12         7.8415    2.7888    0.8323 H         1 <0>         0.0777
     34 H13         7.8246    2.7984   -0.9476 H         1 <0>         0.0777
     35 H14         7.7377    5.2765   -0.9335 H         1 <0>         0.0736
     36 H15         7.7547    5.2669    0.8464 H         1 <0>         0.0736
     37 H16         9.9543    4.1225    0.8193 H         1 <0>         0.0481
     38 H17         9.9373    4.1321   -0.9606 H         1 <0>         0.0481
     39 H18        11.1228    6.0057   -0.0718 H         1 <0>         0.3829
@<TRIPOS>BOND
     1    1    6 ar
     2    1    2 ar
     3    1   22 1
     4    2    3 ar
     5    2   23 1
     6    3    4 ar
     7    3   24 1
     8    4    5 ar
     9    4    7 1
    10    5    6 ar
    11    5   25 1
    12    6   26 1
    13    7   11 1
    14    7    8 1
    15    8    9 2
    16    8   27 1
    17    9   10 1
    18   10   15 ar
    19   10   11 ar
    20   11   12 ar
    21   12   13 ar
    22   12   28 1
    23   13   14 ar
    24   13   29 1
    25   14   15 ar
    26   14   16 1
    27   15   30 1
    28   16   17 1
    29   17   18 1
    30   17   31 1
    31   17   32 1
    32   18   19 1
    33   18   33 1
    34   18   34 1
    35   19   20 1
    36   19   35 1
    37   19   36 1
    38   20   21 1
    39   20   37 1
    40   20   38 1
    41   21   39 1
@<TRIPOS>MOLECULE
ZINC03832259
   37    40     0     0     0
SMALL
USER_CHARGES

@<TRIPOS>ATOM
      1 C1         -3.6611    3.2395    0.1640 C.3       1 <0>         0.0693
      2 N1         -2.4148    3.9877    0.3462 N.am      1 <0>        -0.5069
      3 C2         -1.2155    3.3206    0.3440 C.ar      1 <0>         0.4602
      4 C3         -0.0059    4.0265    0.5186 C.ar      1 <0>        -0.2684
      5 C4         -0.0202    5.4297    0.6972 C.2       1 <0>         0.0093
      6 C5         -1.2207    6.0859    0.6989 C.2       1 <0>        -0.1319
      7 C6         -2.4577    5.3234    0.5146 C.2       1 <0>         0.5475
      8 O1         -3.5307    5.9001    0.5140 O.2       1 <0>        -0.5015
      9 C7         -1.2691    7.5559    0.8847 C.2       1 <0>        -0.0738
     10 C8         -0.8680    8.1356    2.0850 C.2       1 <0>        -0.1440
     11 C9         -0.9214    9.4804    2.2143 C.2       1 <0>        -0.1725
     12 S1         -1.5624    9.9882    0.6280 S.3       1 <0>         0.0511
     13 C10        -1.7141    8.3734   -0.1173 C.2       1 <0>        -0.1415
     14 C11         1.1979    3.3072    0.5100 C.ar      1 <0>         0.2605
     15 N2          1.1511    1.9989    0.3389 N.ar      1 <0>        -0.5674
     16 C12        -0.0062    1.3677    0.1775 C.ar      1 <0>         0.6052
     17 N3         -1.1671    2.0042    0.1729 N.ar      1 <0>        -0.5917
     18 N4          0.0021   -0.0041    0.0020 N.pl3     1 <0>        -0.6257
     19 C13         1.2126   -0.6839   -0.1184 C.ar      1 <0>         0.2034
     20 C14         2.3106   -0.0858   -0.7361 C.ar      1 <0>        -0.1670
     21 C15         3.4924   -0.7905   -0.8305 C.ar      1 <0>         0.1183
     22 N5          3.5881   -2.0180   -0.3550 N.ar      1 <0>        -0.4969
     23 C16         2.5706   -2.6201    0.2316 C.ar      1 <0>         0.1209
     24 C17         1.3559   -1.9820    0.3705 C.ar      1 <0>        -0.2013
     25 H1         -4.0407    2.9238    1.1358 H         1 <0>         0.0745
     26 H2         -4.3987    3.8758   -0.3249 H         1 <0>         0.0926
     27 H3         -3.4711    2.3622   -0.4543 H         1 <0>         0.0947
     28 H4          0.9025    5.9745    0.8316 H         1 <0>         0.1520
     29 H5         -0.5155    7.5204    2.8997 H         1 <0>         0.1350
     30 H6         -0.6502   10.0911    3.0628 H         1 <0>         0.1884
     31 H7         -2.0658    8.1102   -1.1039 H         1 <0>         0.1845
     32 H8          2.1433    3.8126    0.6410 H         1 <0>         0.1898
     33 H9         -0.8347   -0.4931   -0.0372 H         1 <0>         0.4293
     34 H10         2.2376    0.9166   -1.1314 H         1 <0>         0.1458
     35 H11         4.3491   -0.3337   -1.3036 H         1 <0>         0.1596
     36 H12         2.6907   -3.6255    0.6073 H         1 <0>         0.1605
     37 H13         0.5271   -2.4807    0.8509 H         1 <0>         0.1379
@<TRIPOS>BOND
     1    1    2 1
     2    1   25 1
     3    1   26 1
     4    1   27 1
     5    2    7 am
     6    2    3 1
     7    3   17 ar
     8    3    4 ar
     9    4    5 1
    10    4   14 ar
    11    5    6 2
    12    5   28 1
    13    6    7 1
    14    6    9 1
    15    7    8 2
    16    9   13 2
    17    9   10 1
    18   10   11 2
    19   10   29 1
    20   11   12 1
    21   11   30 1
    22   12   13 1
    23   13   31 1
    24   14   15 ar
    25   14   32 1
    26   15   16 ar
    27   16   17 ar
    28   16   18 1
    29   18   19 1
    30   18   33 1
    31   19   24 ar
    32   19   20 ar
    33   20   21 ar
    34   20   34 1
    35   21   22 ar
    36   21   35 1
    37   22   23 ar
    38   23   24 ar
    39   23   36 1
    40   24   37 1
@<TRIPOS>MOLECULE
ZINC03832260
   50    52     0     0     0
SMALL
USER_CHARGES

@<TRIPOS>ATOM
      1 C1          3.3564   -5.4405   -0.7465 C.3       1 <0>        -0.1541
      2 C2          2.0320   -4.6802   -0.8403 C.3       1 <0>        -0.1259
      3 C3          2.2293   -3.2485   -0.3382 C.3       1 <0>        -0.1207
      4 C4          0.9049   -2.4881   -0.4319 C.3       1 <0>        -0.1062
      5 C5          1.1021   -1.0564    0.0702 C.3       1 <0>        -0.1396
      6 C6         -0.2024   -0.3075   -0.0222 C.2       1 <0>         0.5119
      7 O1         -1.1924   -0.8641   -0.4477 O.2       1 <0>        -0.5190
      8 N1         -0.2689    0.9808    0.3681 N.am      1 <0>        -0.6756
      9 C7         -1.4546    1.7035    0.1963 C.ar      1 <0>         0.1622
     10 C8         -1.4053    3.0559   -0.1190 C.ar      1 <0>        -0.1615
     11 C9         -2.5755    3.7691   -0.2935 C.ar      1 <0>        -0.0806
     12 C10        -3.7983    3.1432   -0.1449 C.ar      1 <0>        -0.1280
     13 C11        -3.8545    1.7925    0.1754 C.ar      1 <0>         0.1824
     14 C12        -2.6806    1.0720    0.3462 C.ar      1 <0>        -0.1497
     15 N2         -5.0922    1.1598    0.3261 N.pl3     1 <0>        -0.6355
     16 C13        -6.1718    1.8626    0.8359 C.ar      1 <0>         0.5673
     17 N3         -5.9886    3.1007    1.2719 N.ar      1 <0>        -0.5539
     18 C14        -6.9945    3.8049    1.7655 C.ar      1 <0>         0.1952
     19 C15        -8.2544    3.2355    1.8250 C.ar      1 <0>        -0.2717
     20 C16        -8.4170    1.9288    1.3581 C.ar      1 <0>         0.2644
     21 N4         -7.3608    1.2821    0.8700 N.ar      1 <0>        -0.5598
     22 C17        -9.7471    1.2742    1.4003 C.ar      1 <0>        -0.1151
     23 C18        -9.9106   -0.0334    0.9332 C.ar      1 <0>        -0.0280
     24 C19       -11.1722   -0.5993    0.9944 C.ar      1 <0>        -0.1782
     25 C20       -12.2210    0.1399    1.5109 C.ar      1 <0>         0.1160
     26 N5        -12.0362    1.3719    1.9442 N.ar      1 <0>        -0.4849
     27 C21       -10.8530    1.9503    1.9115 C.ar      1 <0>         0.1327
     28 H1          3.2159   -6.4605   -1.1042 H         1 <0>         0.0541
     29 H2          4.1065   -4.9407   -1.3594 H         1 <0>         0.0536
     30 H3          3.6904   -5.4621    0.2908 H         1 <0>         0.0535
     31 H4          1.2819   -5.1801   -0.2274 H         1 <0>         0.0619
     32 H5          1.6981   -4.6587   -1.8776 H         1 <0>         0.0621
     33 H6          2.9794   -2.7486   -0.9510 H         1 <0>         0.0629
     34 H7          2.5632   -3.2700    0.6992 H         1 <0>         0.0627
     35 H8          0.1548   -2.9880    0.1810 H         1 <0>         0.0704
     36 H9          0.5709   -2.4666   -1.4693 H         1 <0>         0.0709
     37 H10         1.8522   -0.5565   -0.5427 H         1 <0>         0.0978
     38 H11         1.4361   -1.0779    1.1075 H         1 <0>         0.0971
     39 H12         0.5040    1.4058    0.7717 H         1 <0>         0.4128
     40 H13        -0.4511    3.5491   -0.2314 H         1 <0>         0.1260
     41 H14        -2.5344    4.8193   -0.5422 H         1 <0>         0.1299
     42 H15        -4.7113    3.7044   -0.2783 H         1 <0>         0.1357
     43 H16        -2.7215    0.0218    0.5949 H         1 <0>         0.1403
     44 H17        -5.1949    0.2289    0.0736 H         1 <0>         0.4249
     45 H18        -6.8338    4.8129    2.1183 H         1 <0>         0.1755
     46 H19        -9.0923    3.7883    2.2235 H         1 <0>         0.1504
     47 H20        -9.0738   -0.5877    0.5344 H         1 <0>         0.1467
     48 H21       -11.3358   -1.6074    0.6431 H         1 <0>         0.1422
     49 H22       -13.2067   -0.2987    1.5605 H         1 <0>         0.1617
     50 H23       -10.7402    2.9592    2.2799 H         1 <0>         0.1627
@<TRIPOS>BOND
     1    1    2 1
     2    1   28 1
     3    1   29 1
     4    1   30 1
     5    2    3 1
     6    2   31 1
     7    2   32 1
     8    3    4 1
     9    3   33 1
    10    3   34 1
    11    4    5 1
    12    4   35 1
    13    4   36 1
    14    5    6 1
    15    5   37 1
    16    5   38 1
    17    6    7 2
    18    6    8 am
    19    8    9 1
    20    8   39 1
    21    9   14 ar
    22    9   10 ar
    23   10   11 ar
    24   10   40 1
    25   11   12 ar
    26   11   41 1
    27   12   13 ar
    28   12   42 1
    29   13   14 ar
    30   13   15 1
    31   14   43 1
    32   15   16 1
    33   15   44 1
    34   16   21 ar
    35   16   17 ar
    36   17   18 ar
    37   18   19 ar
    38   18   45 1
    39   19   20 ar
    40   19   46 1
    41   20   21 ar
    42   20   22 1
    43   22   27 ar
    44   22   23 ar
    45   23   24 ar
    46   23   47 1
    47   24   25 ar
    48   24   48 1
    49   25   26 ar
    50   25   49 1
    51   26   27 ar
    52   27   50 1
@<TRIPOS>MOLECULE
ZINC03832261
   30    32     0     0     0
SMALL
USER_CHARGES

@<TRIPOS>ATOM
      1 C1         -0.0127    1.0858    0.0080 C.3       1 <0>         0.0237
      2 O1         -0.6816    1.5467    1.1837 O.3       1 <0>        -0.3111
      3 C2         -0.7873    2.8910    1.3461 C.ar      1 <0>         0.1515
      4 C3         -0.2453    3.7480    0.3823 C.ar      1 <0>        -0.1884
      5 C4         -0.3417    5.0973    0.5181 C.ar      1 <0>        -0.0508
      6 C5         -0.9832    5.6431    1.6438 C.ar      1 <0>        -0.1339
      7 C6         -1.0935    7.0336    1.8132 C.ar      1 <0>        -0.0232
      8 C7         -1.7398    7.5029    2.9479 C.ar      1 <0>        -0.1259
      9 C8         -2.2562    6.5875    3.8784 C.ar      1 <0>         0.1621
     10 N1         -2.1435    5.2953    3.7028 N.ar      1 <0>        -0.4750
     11 C9         -1.5312    4.7828    2.6290 C.ar      1 <0>         0.1700
     12 C10        -1.4214    3.3933    2.4594 C.ar      1 <0>        -0.1449
     13 C11        -1.8835    8.9612    3.1762 C.ar      1 <0>         0.0084
     14 C12        -1.3695    9.8853    2.2617 C.ar      1 <0>        -0.1696
     15 C13        -1.5298   11.2328    2.5102 C.ar      1 <0>         0.1065
     16 N2         -2.1484   11.6520    3.5976 N.ar      1 <0>        -0.4871
     17 C14        -2.6433   10.8135    4.4879 C.ar      1 <0>         0.1072
     18 C15        -2.5316    9.4494    4.3146 C.ar      1 <0>        -0.1675
     19 H1          0.0021   -0.0041    0.0020 H         1 <0>         0.1051
     20 H2          1.0099    1.4631    0.0003 H         1 <0>         0.0588
     21 H3         -0.5399    1.4469   -0.8751 H         1 <0>         0.0588
     22 H4          0.2519    3.3328   -0.4819 H         1 <0>         0.1384
     23 H5          0.0775    5.7485   -0.2346 H         1 <0>         0.1380
     24 H6         -0.6870    7.7168    1.0822 H         1 <0>         0.1439
     25 H7         -2.7580    6.9581    4.7600 H         1 <0>         0.1641
     26 H8         -1.8322    2.7221    3.1991 H         1 <0>         0.1462
     27 H9         -0.8578    9.5492    1.3720 H         1 <0>         0.1361
     28 H10        -1.1401   11.9543    1.8073 H         1 <0>         0.1590
     29 H11        -3.1423   11.2002    5.3642 H         1 <0>         0.1602
     30 H12        -2.9391    8.7688    5.0475 H         1 <0>         0.1398
@<TRIPOS>BOND
     1    1    2 1
     2    1   19 1
     3    1   20 1
     4    1   21 1
     5    2    3 1
     6    3   12 ar
     7    3    4 ar
     8    4    5 ar
     9    4   22 1
    10    5    6 ar
    11    5   23 1
    12    6   11 ar
    13    6    7 ar
    14    7    8 ar
    15    7   24 1
    16    8    9 ar
    17    8   13 1
    18    9   10 ar
    19    9   25 1
    20   10   11 ar
    21   11   12 ar
    22   12   26 1
    23   13   18 ar
    24   13   14 ar
    25   14   15 ar
    26   14   27 1
    27   15   16 ar
    28   15   28 1
    29   16   17 ar
    30   17   18 ar
    31   17   29 1
    32   18   30 1
@<TRIPOS>MOLECULE
ZINC03832262
   35    37     0     0     0
SMALL
USER_CHARGES

@<TRIPOS>ATOM
      1 C1         -3.4049    3.7848    0.0395 C.ar      1 <0>        -0.1075
      2 C2         -3.2972    2.7615   -0.8843 C.ar      1 <0>        -0.0975
      3 C3         -2.1756    1.9556   -0.8967 C.ar      1 <0>        -0.1146
      4 C4         -1.1555    2.1739    0.0196 C.ar      1 <0>         0.1118
      5 C5         -1.2691    3.1986    0.9496 C.ar      1 <0>        -0.1166
      6 C6         -2.3904    4.0050    0.9530 C.ar      1 <0>        -0.0995
      7 N1         -0.0164    1.3581    0.0095 N.pl3     1 <0>        -0.4409
      8 C7          0.0021   -0.0041    0.0020 C.2       1 <0>         0.2904
      9 N2          1.2301   -0.4342   -0.0120 N.2       1 <0>        -0.4908
     10 C8          2.0853    0.6208   -0.0145 C.ar      1 <0>         0.0882
     11 C9          1.3001    1.7861   -0.0008 C.ar      1 <0>         0.0273
     12 C10         1.9078    3.0332    0.0006 C.ar      1 <0>        -0.0583
     13 C11         3.2830    3.1275   -0.0120 C.ar      1 <0>        -0.1824
     14 C12         4.0676    1.9781   -0.0261 C.ar      1 <0>         0.1053
     15 C13         3.4782    0.7294   -0.0272 C.ar      1 <0>        -0.0909
     16 O1          5.4231    2.0854   -0.0385 O.3       1 <0>        -0.3282
     17 C14         5.9693    3.4059   -0.0366 C.3       1 <0>         0.0214
     18 C15         7.4972    3.3258   -0.0516 C.3       1 <0>         0.0071
     19 H1         -4.2829    4.4137    0.0472 H         1 <0>         0.1350
     20 H2         -4.0909    2.5924   -1.5970 H         1 <0>         0.1379
     21 H3         -2.0920    1.1567   -1.6187 H         1 <0>         0.1329
     22 H4         -0.4793    3.3680    1.6665 H         1 <0>         0.1282
     23 H5         -2.4774    4.8050    1.6733 H         1 <0>         0.1360
     24 H6         -0.8746   -0.6349    0.0070 H         1 <0>         0.2223
     25 H7          1.3044    3.9288    0.0119 H         1 <0>         0.1322
     26 H8          3.7544    4.0992   -0.0106 H         1 <0>         0.1361
     27 H9          4.0913   -0.1596   -0.0382 H         1 <0>         0.1419
     28 H10         5.6250    3.9428   -0.9205 H         1 <0>         0.0878
     29 H11         5.6420    3.9333    0.8594 H         1 <0>         0.1095
     30 H12         7.9145    4.3286    0.0394 H         1 <0>         0.1541
     31 H13         7.8371    2.7136    0.7837 H         1 <0>         0.1435
     32 H14         7.5866    3.2356   -2.1064 H         1 <0>         0.4369
     33 H15         8.9499    2.6583   -1.3488 H         1 <0>         0.4419
     34 N3          7.9327    2.6995   -1.3124 N.4       1 <0>        -0.6473
     35 H16         7.5567    1.7454   -1.3628 H         1 <0>         0.4471
@<TRIPOS>BOND
     1    1    6 ar
     2    1    2 ar
     3    1   19 1
     4    2    3 ar
     5    2   20 1
     6    3    4 ar
     7    3   21 1
     8    4    5 ar
     9    4    7 1
    10    5    6 ar
    11    5   22 1
    12    6   23 1
    13    7   11 1
    14    7    8 1
    15    8    9 2
    16    8   24 1
    17    9   10 1
    18   10   15 ar
    19   10   11 ar
    20   11   12 ar
    21   12   13 ar
    22   12   25 1
    23   13   14 ar
    24   13   26 1
    25   14   15 ar
    26   14   16 1
    27   15   27 1
    28   16   17 1
    29   17   18 1
    30   17   28 1
    31   17   29 1
    32   18   30 1
    33   18   31 1
    34   18   34 1
    35   32   34 1
    36   33   34 1
    37   34   35 1
@<TRIPOS>MOLECULE
ZINC03832263
   46    49     0     0     0
SMALL
USER_CHARGES

@<TRIPOS>ATOM
      1 C1         -3.4088    3.6630    0.1195 C.ar      1 <0>        -0.1075
      2 C2         -3.2972    2.5605   -0.7076 C.ar      1 <0>        -0.0975
      3 C3         -2.1653    1.7704   -0.6587 C.ar      1 <0>        -0.1147
      4 C4         -1.1389    2.0843    0.2222 C.ar      1 <0>         0.1120
      5 C5         -1.2562    3.1890    1.0551 C.ar      1 <0>        -0.1167
      6 C6         -2.3883    3.9782    0.9978 C.ar      1 <0>        -0.0995
      7 N1          0.0103    1.2845    0.2745 N.pl3     1 <0>        -0.4409
      8 C7          0.0460   -0.0723    0.3924 C.2       1 <0>         0.2903
      9 N2          1.2792   -0.4874    0.4043 N.2       1 <0>        -0.4908
     10 C8          2.1209    0.5729    0.2950 C.ar      1 <0>         0.0886
     11 C9          1.3211    1.7251    0.2102 C.ar      1 <0>         0.0273
     12 C10         1.9129    2.9740    0.0890 C.ar      1 <0>        -0.0579
     13 C11         3.2865    3.0828    0.0510 C.ar      1 <0>        -0.1824
     14 C12         4.0855    1.9463    0.1345 C.ar      1 <0>         0.1056
     15 C13         3.5120    0.6961    0.2559 C.ar      1 <0>        -0.0910
     16 O1          5.4393    2.0679    0.0959 O.3       1 <0>        -0.3277
     17 C14         5.9687    3.3891   -0.0309 C.3       1 <0>         0.0256
     18 C15         7.4971    3.3258   -0.0569 C.3       1 <0>         0.0044
     19 C16         9.3171    2.1297   -1.1171 C.3       1 <0>        -0.0383
     20 C17         9.7135    1.3455   -2.3708 C.3       1 <0>         0.0337
     21 O2          9.5535    2.1812   -3.5203 O.3       1 <0>        -0.3563
     22 C18         8.2212    2.6710   -3.6950 C.3       1 <0>         0.0349
     23 C19         7.8097    3.4686   -2.4547 C.3       1 <0>        -0.0429
     24 H1         -4.2946    4.2795    0.0791 H         1 <0>         0.1349
     25 H2         -4.0957    2.3171   -1.3928 H         1 <0>         0.1378
     26 H3         -2.0786    0.9096   -1.3051 H         1 <0>         0.1329
     27 H4         -0.4615    3.4330    1.7445 H         1 <0>         0.1282
     28 H5         -2.4783    4.8399    1.6425 H         1 <0>         0.1360
     29 H6         -0.8224   -0.7102    0.4649 H         1 <0>         0.2222
     30 H7          1.2982    3.8597    0.0237 H         1 <0>         0.1322
     31 H8          3.7454    4.0559   -0.0437 H         1 <0>         0.1358
     32 H9          4.1363   -0.1829    0.3200 H         1 <0>         0.1417
     33 H10         5.6078    3.8379   -0.9563 H         1 <0>         0.0853
     34 H11         5.6445    3.9932    0.8165 H         1 <0>         0.1112
     35 H12         7.9026    4.3375   -0.0629 H         1 <0>         0.1516
     36 H13         7.8540    2.7965    0.8266 H         1 <0>         0.1437
     37 H14         9.9896    2.9781   -0.9907 H         1 <0>         0.1410
     38 H15         9.3830    1.4792   -0.2450 H         1 <0>         0.1426
     39 H16         9.0753    0.4672   -2.4677 H         1 <0>         0.0819
     40 H17        10.7544    1.0320   -2.2909 H         1 <0>         0.1427
     41 H18         7.5395    1.8312   -3.8303 H         1 <0>         0.0815
     42 H19         8.1829    3.3168   -4.5722 H         1 <0>         0.1420
     43 H20         6.7751    3.7955   -2.5589 H         1 <0>         0.1380
     44 H21         8.4581    4.3385   -2.3497 H         1 <0>         0.1423
     45 N3          7.9220    2.5927   -1.2691 N.4       1 <0>        -0.3988
     46 H22         7.3114    1.7772   -1.3971 H         1 <0>         0.4348
@<TRIPOS>BOND
     1    1    6 ar
     2    1    2 ar
     3    1   24 1
     4    2    3 ar
     5    2   25 1
     6    3    4 ar
     7    3   26 1
     8    4    5 ar
     9    4    7 1
    10    5    6 ar
    11    5   27 1
    12    6   28 1
    13    7   11 1
    14    7    8 1
    15    8    9 2
    16    8   29 1
    17    9   10 1
    18   10   15 ar
    19   10   11 ar
    20   11   12 ar
    21   12   13 ar
    22   12   30 1
    23   13   14 ar
    24   13   31 1
    25   14   15 ar
    26   14   16 1
    27   15   32 1
    28   16   17 1
    29   17   18 1
    30   17   33 1
    31   17   34 1
    32   18   35 1
    33   18   36 1
    34   18   45 1
    35   19   20 1
    36   19   37 1
    37   19   38 1
    38   19   45 1
    39   20   21 1
    40   20   39 1
    41   20   40 1
    42   21   22 1
    43   22   23 1
    44   22   41 1
    45   22   42 1
    46   23   43 1
    47   23   44 1
    48   23   45 1
    49   45   46 1
@<TRIPOS>MOLECULE
ZINC03832264
   51    54     0     0     0
SMALL
USER_CHARGES

@<TRIPOS>ATOM
      1 C1          1.3096    3.4162   -0.7603 C.ar      1 <0>        -0.0781
      2 C2          1.2090    2.1205   -0.2912 C.ar      1 <0>        -0.1616
      3 C3         -0.0409    1.5537   -0.0749 C.ar      1 <0>         0.1828
      4 C4         -1.1890    2.2886   -0.3359 C.ar      1 <0>        -0.1411
      5 C5         -1.0842    3.5908   -0.8022 C.ar      1 <0>         0.1661
      6 C6          0.1688    4.1520   -1.0161 C.ar      1 <0>        -0.1362
      7 N1         -2.2392    4.3368   -1.0619 N.am      1 <0>        -0.6733
      8 C7         -2.2473    5.6659   -0.8390 C.2       1 <0>         0.5180
      9 O1         -1.2867    6.2008   -0.3270 O.2       1 <0>        -0.5144
     10 C8         -3.4500    6.4875   -1.2258 C.3       1 <0>        -0.1040
     11 C9         -3.6891    6.3639   -2.7319 C.3       1 <0>        -0.1112
     12 C10        -4.9101    7.1980   -3.1246 C.3       1 <0>        -0.1181
     13 C11        -4.6625    8.6647   -2.7663 C.3       1 <0>        -0.1236
     14 C12        -4.4234    8.7883   -1.2601 C.3       1 <0>        -0.1204
     15 C13        -3.2024    7.9542   -0.8674 C.3       1 <0>        -0.1002
     16 N2         -0.1420    0.2425    0.3998 N.pl3     1 <0>        -0.6363
     17 C14        -1.1826   -0.1104    1.2436 C.ar      1 <0>         0.5659
     18 N3         -2.0085    0.8305    1.6786 N.ar      1 <0>        -0.5536
     19 C15        -3.0144    0.5338    2.4858 C.ar      1 <0>         0.1949
     20 C16        -3.2023   -0.7798    2.8786 C.ar      1 <0>        -0.2708
     21 C17        -2.3157   -1.7497    2.4039 C.ar      1 <0>         0.2648
     22 N4         -1.3295   -1.3792    1.5904 N.ar      1 <0>        -0.5595
     23 C18        -2.4749   -3.1713    2.7954 C.ar      1 <0>        -0.1156
     24 C19        -1.5881   -4.1425    2.3209 C.ar      1 <0>        -0.0279
     25 C20        -1.7797   -5.4552    2.7156 C.ar      1 <0>        -0.1782
     26 C21        -2.8324   -5.7614    3.5589 C.ar      1 <0>         0.1164
     27 N5         -3.6531   -4.8233    3.9905 N.ar      1 <0>        -0.4846
     28 C22        -3.5073   -3.5600    3.6467 C.ar      1 <0>         0.1329
     29 H1          2.2824    3.8549   -0.9271 H         1 <0>         0.1307
     30 H2          2.1028    1.5478   -0.0923 H         1 <0>         0.1262
     31 H3         -2.1618    1.8489   -0.1724 H         1 <0>         0.1366
     32 H4          0.2509    5.1644   -1.3830 H         1 <0>         0.1330
     33 H5         -3.0341    3.8972   -1.4024 H         1 <0>         0.4097
     34 H6         -4.3260    6.1249   -0.6879 H         1 <0>         0.0998
     35 H7         -2.8131    6.7265   -3.2698 H         1 <0>         0.0700
     36 H8         -3.8655    5.3190   -2.9872 H         1 <0>         0.0664
     37 H9         -5.7861    6.8354   -2.5867 H         1 <0>         0.0651
     38 H10        -5.0805    7.1099   -4.1976 H         1 <0>         0.0672
     39 H11        -5.5324    9.2589   -3.0460 H         1 <0>         0.0641
     40 H12        -3.7866    9.0273   -3.3042 H         1 <0>         0.0635
     41 H13        -5.2994    8.4257   -0.7222 H         1 <0>         0.0631
     42 H14        -4.2470    9.8332   -1.0048 H         1 <0>         0.0673
     43 H15        -3.0321    8.0423    0.2056 H         1 <0>         0.0706
     44 H16        -2.3265    8.3168   -1.4053 H         1 <0>         0.0711
     45 H17         0.5163   -0.4201    0.1382 H         1 <0>         0.4248
     46 H18        -3.6812    1.3085    2.8345 H         1 <0>         0.1740
     47 H19        -4.0151   -1.0488    3.5369 H         1 <0>         0.1504
     48 H20        -0.7745   -3.8752    1.6628 H         1 <0>         0.1467
     49 H21        -1.1141   -6.2320    2.3691 H         1 <0>         0.1424
     50 H22        -2.9846   -6.7846    3.8691 H         1 <0>         0.1619
     51 H23        -4.1969   -2.8196    4.0244 H         1 <0>         0.1625
@<TRIPOS>BOND
     1    1    6 ar
     2    1    2 ar
     3    1   29 1
     4    2    3 ar
     5    2   30 1
     6    3    4 ar
     7    3   16 1
     8    4    5 ar
     9    4   31 1
    10    5    6 ar
    11    5    7 1
    12    6   32 1
    13    7    8 am
    14    7   33 1
    15    8    9 2
    16    8   10 1
    17   10   15 1
    18   10   11 1
    19   10   34 1
    20   11   12 1
    21   11   35 1
    22   11   36 1
    23   12   13 1
    24   12   37 1
    25   12   38 1
    26   13   14 1
    27   13   39 1
    28   13   40 1
    29   14   15 1
    30   14   41 1
    31   14   42 1
    32   15   43 1
    33   15   44 1
    34   16   17 1
    35   16   45 1
    36   17   22 ar
    37   17   18 ar
    38   18   19 ar
    39   19   20 ar
    40   19   46 1
    41   20   21 ar
    42   20   47 1
    43   21   22 ar
    44   21   23 1
    45   23   28 ar
    46   23   24 ar
    47   24   25 ar
    48   24   48 1
    49   25   26 ar
    50   25   49 1
    51   26   27 ar
    52   26   50 1
    53   27   28 ar
    54   28   51 1
@<TRIPOS>MOLECULE
ZINC03832265
   48    51     0     0     0
SMALL
USER_CHARGES

@<TRIPOS>ATOM
      1 C1         10.3605   -2.6103   -0.1700 C.3       1 <0>        -0.1227
      2 C2          9.0421   -1.8805   -0.1646 C.ar      1 <0>        -0.0542
      3 C3          7.9238   -2.4744   -0.7225 C.ar      1 <0>        -0.1287
      4 C4          6.7139   -1.8117   -0.7209 C.ar      1 <0>        -0.0511
      5 C5          6.6193   -0.5392   -0.1549 C.ar      1 <0>        -0.1462
      6 C6          7.7525    0.0564    0.4015 C.ar      1 <0>        -0.0805
      7 C7          8.9551   -0.6196    0.3985 C.ar      1 <0>        -0.1284
      8 C8          5.3262    0.1769   -0.1501 C.2       1 <0>         0.5615
      9 O1          4.3421   -0.3422   -0.6399 O.2       1 <0>        -0.5168
     10 N1          5.2382    1.4053    0.3973 N.am      1 <0>        -0.6687
     11 C9          4.0373    2.1183    0.3258 C.ar      1 <0>         0.1609
     12 C10         4.0564    3.5000    0.1786 C.ar      1 <0>        -0.1585
     13 C11         2.8706    4.2050    0.1075 C.ar      1 <0>        -0.0826
     14 C12         1.6620    3.5388    0.1771 C.ar      1 <0>        -0.1257
     15 C13         1.6359    2.1581    0.3296 C.ar      1 <0>         0.1780
     16 C14         2.8256    1.4469    0.4013 C.ar      1 <0>        -0.1466
     17 N2          0.4127    1.4853    0.4048 N.pl3     1 <0>        -0.6355
     18 C15        -0.6646    2.0761    1.0450 C.ar      1 <0>         0.5683
     19 N3         -0.5389    3.3083    1.5166 N.ar      1 <0>        -0.5553
     20 C16        -1.5446    3.9072    2.1341 C.ar      1 <0>         0.1956
     21 C17        -2.7431    3.2325    2.2871 C.ar      1 <0>        -0.2726
     22 C18        -2.8459    1.9348    1.7797 C.ar      1 <0>         0.2651
     23 N4         -1.7945    1.3974    1.1651 N.ar      1 <0>        -0.5602
     24 C19        -4.1092    1.1702    1.9179 C.ar      1 <0>        -0.1151
     25 C20        -4.2128   -0.1284    1.4104 C.ar      1 <0>        -0.0280
     26 C21        -5.4132   -0.7997    1.5649 C.ar      1 <0>        -0.1782
     27 C22        -6.4622   -0.1702    2.2104 C.ar      1 <0>         0.1159
     28 N5         -6.3347    1.0562    2.6789 N.ar      1 <0>        -0.4849
     29 C23        -5.2102    1.7322    2.5607 C.ar      1 <0>         0.1327
     30 H1         10.9080   -2.3650   -1.0800 H         1 <0>         0.0772
     31 H2         10.9461   -2.3091    0.6987 H         1 <0>         0.0711
     32 H3         10.1812   -3.6848   -0.1324 H         1 <0>         0.0713
     33 H4          7.9985   -3.4587   -1.1605 H         1 <0>         0.1320
     34 H5          5.8417   -2.2765   -1.1564 H         1 <0>         0.1377
     35 H6          7.6871    1.0425    0.8371 H         1 <0>         0.1262
     36 H7          9.8316   -0.1619    0.8329 H         1 <0>         0.1311
     37 H8          6.0079    1.7950    0.8408 H         1 <0>         0.4114
     38 H9          4.9993    4.0232    0.1194 H         1 <0>         0.1262
     39 H10         2.8881    5.2788   -0.0069 H         1 <0>         0.1307
     40 H11         0.7366    4.0925    0.1171 H         1 <0>         0.1427
     41 H12         2.8081    0.3731    0.5154 H         1 <0>         0.1410
     42 H13         0.3171    0.6066    0.0053 H         1 <0>         0.4250
     43 H14        -1.4311    4.9115    2.5148 H         1 <0>         0.1755
     44 H15        -3.5794    3.6981    2.7874 H         1 <0>         0.1502
     45 H16        -3.3774   -0.5957    0.9101 H         1 <0>         0.1468
     46 H17        -5.5296   -1.8043    1.1859 H         1 <0>         0.1422
     47 H18        -7.4002   -0.6912    2.3331 H         1 <0>         0.1617
     48 H19        -5.1428    2.7329    2.9615 H         1 <0>         0.1627
@<TRIPOS>BOND
     1    1    2 1
     2    1   30 1
     3    1   31 1
     4    1   32 1
     5    2    7 ar
     6    2    3 ar
     7    3    4 ar
     8    3   33 1
     9    4    5 ar
    10    4   34 1
    11    5    6 ar
    12    5    8 1
    13    6    7 ar
    14    6   35 1
    15    7   36 1
    16    8    9 2
    17    8   10 am
    18   10   11 1
    19   10   37 1
    20   11   16 ar
    21   11   12 ar
    22   12   13 ar
    23   12   38 1
    24   13   14 ar
    25   13   39 1
    26   14   15 ar
    27   14   40 1
    28   15   16 ar
    29   15   17 1
    30   16   41 1
    31   17   18 1
    32   17   42 1
    33   18   23 ar
    34   18   19 ar
    35   19   20 ar
    36   20   21 ar
    37   20   43 1
    38   21   22 ar
    39   21   44 1
    40   22   23 ar
    41   22   24 1
    42   24   29 ar
    43   24   25 ar
    44   25   26 ar
    45   25   45 1
    46   26   27 ar
    47   26   46 1
    48   27   28 ar
    49   27   47 1
    50   28   29 ar
    51   29   48 1
@<TRIPOS>MOLECULE
ZINC03832266
   38    41     0     0     0
SMALL
USER_CHARGES

@<TRIPOS>ATOM
      1 C1         -2.3984    1.1218   -0.1016 C.3       1 <0>         0.0699
      2 N1         -1.1730    1.8971   -0.3103 N.am      1 <0>        -0.5075
      3 C2         -1.2286    3.2683   -0.3109 C.ar      1 <0>         0.4611
      4 C3         -0.0582    4.0300   -0.5159 C.ar      1 <0>        -0.2744
      5 C4          1.1843    3.3849   -0.7174 C.2       1 <0>         0.0128
      6 C5          1.2307    2.0175   -0.7101 C.2       1 <0>        -0.1370
      7 C6         -0.0024    1.2570   -0.4946 C.2       1 <0>         0.5489
      8 O1          0.0302    0.0393   -0.4871 O.2       1 <0>        -0.5052
      9 C7          2.5177    1.3118   -0.9190 C.2       1 <0>        -0.0721
     10 C8          3.1899    1.4016   -2.1345 C.2       1 <0>        -0.1436
     11 C9          4.3636    0.7474   -2.2851 C.2       1 <0>        -0.1730
     12 S1          4.5628   -0.0434   -0.6976 S.3       1 <0>         0.0490
     13 C10         3.0689    0.5529    0.0762 C.2       1 <0>        -0.1418
     14 C11        -0.1592    5.4288   -0.5149 C.ar      1 <0>         0.2601
     15 N2         -1.3447    5.9766   -0.3222 N.ar      1 <0>        -0.5670
     16 C12        -2.4254    5.2281   -0.1324 C.ar      1 <0>         0.6062
     17 N3         -2.3797    3.9048   -0.1254 N.ar      1 <0>        -0.5948
     18 N4         -3.6423    5.8534    0.0647 N.pl3     1 <0>        -0.6272
     19 C13        -3.7027    7.2456    0.1773 C.ar      1 <0>         0.1549
     20 C14        -2.6634    7.9407    0.7822 C.ar      1 <0>        -0.1101
     21 C15        -2.7236    9.3165    0.8867 C.ar      1 <0>        -0.1005
     22 C16        -3.8220   10.0010    0.3997 C.ar      1 <0>        -0.1330
     23 C17        -4.8613    9.3114   -0.1975 C.ar      1 <0>        -0.0994
     24 C18        -4.8049    7.9362   -0.3104 C.ar      1 <0>        -0.1440
     25 H1         -2.1640    0.0576   -0.1283 H         1 <0>         0.1003
     26 H2         -2.8279    1.3750    0.8676 H         1 <0>         0.0798
     27 H3         -3.1150    1.3559   -0.8889 H         1 <0>         0.0794
     28 H4          2.0830    3.9630   -0.8744 H         1 <0>         0.1508
     29 H5          2.7821    1.9886   -2.9441 H         1 <0>         0.1349
     30 H6          5.0128    0.7096   -3.1474 H         1 <0>         0.1881
     31 H7          2.6968    0.3635    1.0723 H         1 <0>         0.1843
     32 H8          0.7144    6.0449   -0.6688 H         1 <0>         0.1878
     33 H9         -4.4544    5.3263    0.1249 H         1 <0>         0.4261
     34 H10        -1.8072    7.4063    1.1667 H         1 <0>         0.1340
     35 H11        -1.9139    9.8580    1.3532 H         1 <0>         0.1262
     36 H12        -3.8685   11.0765    0.4864 H         1 <0>         0.1239
     37 H13        -5.7180    9.8490   -0.5765 H         1 <0>         0.1270
     38 H14        -5.6169    7.3982   -0.7769 H         1 <0>         0.1251
@<TRIPOS>BOND
     1    1    2 1
     2    1   25 1
     3    1   26 1
     4    1   27 1
     5    2    7 am
     6    2    3 1
     7    3   17 ar
     8    3    4 ar
     9    4    5 1
    10    4   14 ar
    11    5    6 2
    12    5   28 1
    13    6    7 1
    14    6    9 1
    15    7    8 2
    16    9   13 2
    17    9   10 1
    18   10   11 2
    19   10   29 1
    20   11   12 1
    21   11   30 1
    22   12   13 1
    23   13   31 1
    24   14   15 ar
    25   14   32 1
    26   15   16 ar
    27   16   17 ar
    28   16   18 1
    29   18   19 1
    30   18   33 1
    31   19   24 ar
    32   19   20 ar
    33   20   21 ar
    34   20   34 1
    35   21   22 ar
    36   21   35 1
    37   22   23 ar
    38   22   36 1
    39   23   24 ar
    40   23   37 1
    41   24   38 1
@<TRIPOS>MOLECULE
ZINC03832267
   35    37     0     0     0
SMALL
USER_CHARGES

@<TRIPOS>ATOM
      1 C1          1.2839   -0.6354   -0.0136 C.3       1 <0>         0.0192
      2 O1          0.0021   -0.0041    0.0020 O.3       1 <0>        -0.2827
      3 C2         -0.0163    1.3534    0.0095 C.ar      1 <0>         0.1847
      4 C3          1.1691    2.0564    0.0019 C.ar      1 <0>        -0.1807
      5 C4          1.1512    3.4545    0.0096 C.ar      1 <0>         0.1271
      6 C5         -0.0799    4.1387    0.0251 C.ar      1 <0>        -0.0027
      7 C6         -1.2677    3.4335    0.0333 C.ar      1 <0>        -0.0006
      8 C7         -1.2454    2.0378    0.0190 C.ar      1 <0>        -0.1399
      9 C8         -2.5084    1.2818    0.0209 C.2       1 <0>         0.5102
     10 O2         -2.4893    0.0666    0.0142 O.2       1 <0>        -0.4809
     11 O3         -3.6861    1.9372    0.0301 O.3       1 <0>        -0.3608
     12 C9         -4.8913    1.1273    0.0314 C.3       1 <0>         0.0381
     13 N1          0.2354    5.4884    0.0293 N.pl3     1 <0>        -0.4415
     14 C10         1.5925    5.5844    0.0169 C.2       1 <0>         0.2947
     15 N2          2.1265    4.3967    0.0054 N.2       1 <0>        -0.4981
     16 C11        -0.6735    6.5545    0.0437 C.ar      1 <0>         0.1183
     17 C12        -1.7184    6.5903   -0.8700 C.ar      1 <0>        -0.1158
     18 C13        -2.6166    7.6393   -0.8489 C.ar      1 <0>        -0.0987
     19 C14        -2.4687    8.6597    0.0726 C.ar      1 <0>        -0.1115
     20 C15        -1.4256    8.6299    0.9799 C.ar      1 <0>        -0.0996
     21 C16        -0.5279    7.5803    0.9681 C.ar      1 <0>        -0.1160
     22 H1          1.8284   -0.3302   -0.9072 H         1 <0>         0.0597
     23 H2          1.8454   -0.3398    0.8726 H         1 <0>         0.0596
     24 H3          1.1558   -1.7179   -0.0182 H         1 <0>         0.1054
     25 H4          2.1109    1.5279   -0.0103 H         1 <0>         0.1482
     26 H5         -2.2104    3.9602    0.0447 H         1 <0>         0.1469
     27 H6         -4.9104    0.5030   -0.8619 H         1 <0>         0.0644
     28 H7         -4.9020    0.4933    0.9180 H         1 <0>         0.0644
     29 H8         -5.7660    1.7775    0.0391 H         1 <0>         0.1026
     30 H9          2.1467    6.5114    0.0162 H         1 <0>         0.2209
     31 H10        -1.8314    5.7963   -1.5934 H         1 <0>         0.1306
     32 H11        -3.4325    7.6651   -1.5561 H         1 <0>         0.1350
     33 H12        -3.1695    9.4813    0.0839 H         1 <0>         0.1322
     34 H13        -1.3129    9.4281    1.6986 H         1 <0>         0.1352
     35 H14         0.2862    7.5573    1.6774 H         1 <0>         0.1323
@<TRIPOS>BOND
     1    1    2 1
     2    1   22 1
     3    1   23 1
     4    1   24 1
     5    2    3 1
     6    3    8 ar
     7    3    4 ar
     8    4    5 ar
     9    4   25 1
    10    5   15 1
    11    5    6 ar
    12    6    7 ar
    13    6   13 1
    14    7    8 ar
    15    7   26 1
    16    8    9 1
    17    9   10 2
    18    9   11 1
    19   11   12 1
    20   12   27 1
    21   12   28 1
    22   12   29 1
    23   13   14 1
    24   13   16 1
    25   14   15 2
    26   14   30 1
    27   16   21 ar
    28   16   17 ar
    29   17   18 ar
    30   17   31 1
    31   18   19 ar
    32   18   32 1
    33   19   20 ar
    34   19   33 1
    35   20   21 ar
    36   20   34 1
    37   21   35 1
@<TRIPOS>MOLECULE
ZINC03832268
   38    41     0     0     0
SMALL
USER_CHARGES

@<TRIPOS>ATOM
      1 C1          2.9152    7.3748   -2.2046 C.3       1 <0>         0.0694
      2 N1          2.3661    6.8284   -0.9612 N.am      1 <0>        -0.5057
      3 C2          2.1589    7.6598    0.1107 C.ar      1 <0>         0.4660
      4 C3          1.6308    7.1542    1.3184 C.ar      1 <0>        -0.2790
      5 C4          1.3091    5.7826    1.4357 C.2       1 <0>         0.0348
      6 C5          1.5207    4.9530    0.3521 C.2       1 <0>        -0.1238
      7 C6          2.0767    5.5155   -0.8827 C.2       1 <0>         0.5500
      8 O1          2.2730    4.7930   -1.8434 O.2       1 <0>        -0.4995
      9 C7          1.1966    3.5154    0.4378 C.2       1 <0>        -0.0926
     10 C8         -0.0242    2.9134    0.5978 C.2       1 <0>        -0.1393
     11 C9         -0.0822    1.5376    0.6447 C.2       1 <0>        -0.1583
     12 C10         1.0676    0.8230    0.5424 C.2       1 <0>        -0.1748
     13 S1          2.2928    2.1084    0.3592 S.3       1 <0>         0.0682
     14 C11         1.4359    8.0399    2.3888 C.ar      1 <0>         0.2659
     15 N2          1.7541    9.3103    2.2238 N.ar      1 <0>        -0.5669
     16 C12         2.2490    9.7510    1.0726 C.ar      1 <0>         0.6097
     17 N3          2.4506    8.9537    0.0349 N.ar      1 <0>        -0.5967
     18 N4          2.5657   11.0912    0.9538 N.pl3     1 <0>        -0.6256
     19 C13         2.2572   11.9770    1.9904 C.ar      1 <0>         0.1535
     20 C14         1.1117   11.7849    2.7523 C.ar      1 <0>        -0.1096
     21 C15         0.8126   12.6588    3.7790 C.ar      1 <0>        -0.1006
     22 C16         1.6463   13.7304    4.0418 C.ar      1 <0>        -0.1322
     23 C17         2.7844   13.9278    3.2816 C.ar      1 <0>        -0.0995
     24 C18         3.0924   13.0544    2.2571 C.ar      1 <0>        -0.1432
     25 H1          4.0033    7.3157   -2.1781 H         1 <0>         0.0751
     26 H2          2.5406    6.7992   -3.0510 H         1 <0>         0.0927
     27 H3          2.6103    8.4160   -2.3098 H         1 <0>         0.0955
     28 H4          0.9045    5.3903    2.3570 H         1 <0>         0.1551
     29 H5         -0.9235    3.5056    0.6814 H         1 <0>         0.1348
     30 H6         -1.0301    1.0340    0.7644 H         1 <0>         0.1361
     31 H7          1.2052   -0.2480    0.5620 H         1 <0>         0.1869
     32 H8          1.0343    7.6896    3.3282 H         1 <0>         0.1897
     33 H9          3.0020   11.4171    0.1511 H         1 <0>         0.4266
     34 H10         0.4579   10.9508    2.5446 H         1 <0>         0.1342
     35 H11        -0.0757   12.5077    4.3744 H         1 <0>         0.1265
     36 H12         1.4077   14.4149    4.8424 H         1 <0>         0.1241
     37 H13         3.4334   14.7656    3.4894 H         1 <0>         0.1273
     38 H14         3.9814   13.2090    1.6637 H         1 <0>         0.1253
@<TRIPOS>BOND
     1    1    2 1
     2    1   25 1
     3    1   26 1
     4    1   27 1
     5    2    7 am
     6    2    3 1
     7    3   17 ar
     8    3    4 ar
     9    4    5 1
    10    4   14 ar
    11    5    6 2
    12    5   28 1
    13    6    7 1
    14    6    9 1
    15    7    8 2
    16    9   13 1
    17    9   10 2
    18   10   11 1
    19   10   29 1
    20   11   12 2
    21   11   30 1
    22   12   13 1
    23   12   31 1
    24   14   15 ar
    25   14   32 1
    26   15   16 ar
    27   16   17 ar
    28   16   18 1
    29   18   19 1
    30   18   33 1
    31   19   24 ar
    32   19   20 ar
    33   20   21 ar
    34   20   34 1
    35   21   22 ar
    36   21   35 1
    37   22   23 ar
    38   22   36 1
    39   23   24 ar
    40   23   37 1
    41   24   38 1
@<TRIPOS>MOLECULE
ZINC03834019
   39    41     0     0     0
SMALL
USER_CHARGES

@<TRIPOS>ATOM
      1 C1          5.9795    3.3041   -0.0387 C.3       1 <0>         0.0226
      2 O1          5.9818    1.8751   -0.0464 O.3       1 <0>        -0.3017
      3 C2          4.7716    1.2560   -0.0377 C.ar      1 <0>         0.1253
      4 C3          3.6306    2.0038   -0.0223 C.ar      1 <0>        -0.1738
      5 C4          2.3792    1.3634   -0.0134 C.ar      1 <0>        -0.0879
      6 C5          1.1858    2.1034    0.0020 C.ar      1 <0>        -0.0488
      7 C6         -0.0170    1.4029    0.0098 C.ar      1 <0>        -0.1111
      8 C7          0.0021   -0.0041    0.0020 C.ar      1 <0>         0.1370
      9 N1          1.1265   -0.6724   -0.0123 N.ar      1 <0>        -0.4699
     10 C8          2.3135   -0.0539   -0.0203 C.ar      1 <0>         0.1382
     11 C9          3.5071   -0.7938   -0.0362 C.ar      1 <0>        -0.1708
     12 C10         4.7085   -0.1456   -0.0442 C.ar      1 <0>         0.1396
     13 O2          5.8592   -0.8679   -0.0591 O.3       1 <0>        -0.3010
     14 C11         5.7318   -2.2912   -0.0650 C.3       1 <0>         0.0215
     15 C12        -1.2991    2.1285    0.0198 C.2       1 <0>        -0.1046
     16 C13        -2.4563    1.4469    0.0216 C.2       1 <0>        -0.0996
     17 C14        -3.7389    2.1727    0.0316 C.ar      1 <0>        -0.0603
     18 C15        -3.7549    3.5700    0.0450 C.ar      1 <0>        -0.1125
     19 C16        -4.9590    4.2424    0.0490 C.ar      1 <0>        -0.1191
     20 C17        -6.1494    3.5368    0.0508 C.ar      1 <0>        -0.1172
     21 C18        -6.1414    2.1530    0.0428 C.ar      1 <0>        -0.1192
     22 C19        -4.9451    1.4670    0.0335 C.ar      1 <0>        -0.1059
     23 H1          5.4563    3.6714   -0.9216 H         1 <0>         0.0583
     24 H2          5.4740    3.6618    0.8583 H         1 <0>         0.0583
     25 H3          7.0066    3.6691   -0.0470 H         1 <0>         0.1053
     26 H4          3.6885    3.0822   -0.0168 H         1 <0>         0.1455
     27 H5          1.2008    3.1832    0.0073 H         1 <0>         0.1407
     28 H6         -0.9329   -0.5445    0.0084 H         1 <0>         0.1607
     29 H7          3.4745   -1.8733   -0.0413 H         1 <0>         0.1510
     30 H8          6.7229   -2.7447   -0.0770 H         1 <0>         0.1057
     31 H9          5.1963   -2.6118    0.8287 H         1 <0>         0.0601
     32 H10         5.1789   -2.6028   -0.9512 H         1 <0>         0.0601
     33 H11        -1.3084    3.2084    0.0257 H         1 <0>         0.1263
     34 H12        -2.4470    0.3670    0.0156 H         1 <0>         0.1252
     35 H13        -2.8266    4.1220    0.0485 H         1 <0>         0.1247
     36 H14        -4.9730    5.3223    0.0556 H         1 <0>         0.1240
     37 H15        -7.0893    4.0687    0.0581 H         1 <0>         0.1229
     38 H16        -7.0744    1.6090    0.0443 H         1 <0>         0.1247
     39 H17        -4.9404    0.3870    0.0272 H         1 <0>         0.1257
@<TRIPOS>BOND
     1    1    2 1
     2    1   23 1
     3    1   24 1
     4    1   25 1
     5    2    3 1
     6    3   12 ar
     7    3    4 ar
     8    4    5 ar
     9    4   26 1
    10    5   10 ar
    11    5    6 ar
    12    6    7 ar
    13    6   27 1
    14    7    8 ar
    15    7   15 1
    16    8    9 ar
    17    8   28 1
    18    9   10 ar
    19   10   11 ar
    20   11   12 ar
    21   11   29 1
    22   12   13 1
    23   13   14 1
    24   14   30 1
    25   14   31 1
    26   14   32 1
    27   15   16 2
    28   15   33 1
    29   16   17 1
    30   16   34 1
    31   17   22 ar
    32   17   18 ar
    33   18   19 ar
    34   18   35 1
    35   19   20 ar
    36   19   36 1
    37   20   21 ar
    38   20   37 1
    39   21   22 ar
    40   21   38 1
    41   22   39 1
@<TRIPOS>MOLECULE
ZINC03834020
   50    53     0     0     0
SMALL
USER_CHARGES

@<TRIPOS>ATOM
      1 C1         -0.1786    2.2930    0.0723 C.3       1 <0>        -0.0906
      2 C2         -0.8085    1.8462    1.3664 C.2       1 <0>        -0.0803
      3 C3         -2.1654    1.6057    1.5893 C.2       1 <0>        -0.1581
      4 C4         -2.3151    1.2186    2.8806 C.2       1 <0>         0.0733
      5 N1         -1.0998    1.2158    3.4840 N.pl3     1 <0>        -0.5117
      6 H1         -0.9278    0.9810    4.4093 H         1 <0>         0.4157
      7 C5         -0.1505    1.6022    2.5623 C.2       1 <0>        -0.0369
      8 C6          1.2350    1.7257    2.7929 C.2       1 <0>         0.1061
      9 C7          1.6959    2.1355    4.0300 C.2       1 <0>        -0.2339
     10 C8          3.0978    2.1726    4.5003 C.ar      1 <0>        -0.0779
     11 C9          4.3122    1.8484    3.9001 C.ar      1 <0>        -0.0700
     12 C10         5.4866    1.9976    4.6035 C.ar      1 <0>        -0.1266
     13 C11         5.4588    2.4791    5.9139 C.ar      1 <0>        -0.0227
     14 C12         4.2489    2.8100    6.5162 C.ar      1 <0>        -0.1268
     15 C13         3.0605    2.6627    5.8142 C.ar      1 <0>         0.1385
     16 N2          1.7403    2.9129    6.1700 N.am      1 <0>        -0.6539
     17 C14         0.8988    2.6221    5.1636 C.2       1 <0>         0.5558
     18 O1         -0.3133    2.7408    5.1875 O.2       1 <0>        -0.5113
     19 C15         6.7258    2.6383    6.6681 C.ar      1 <0>        -0.0412
     20 C16         6.7060    3.1233    7.9747 C.ar      1 <0>        -0.1117
     21 C17         7.8876    3.2639    8.6736 C.ar      1 <0>        -0.1182
     22 C18         9.0911    2.9353    8.0760 C.ar      1 <0>        -0.1205
     23 C19         9.1174    2.4588    6.7776 C.ar      1 <0>        -0.1177
     24 C20         7.9415    2.3087    6.0710 C.ar      1 <0>        -0.1090
     25 C21        -3.6209    0.8568    3.5403 C.3       1 <0>        -0.0921
     26 C22        -3.2692    1.7479    0.5731 C.3       1 <0>        -0.0295
     27 C23        -3.4624    0.4186   -0.1594 C.3       1 <0>        -0.1468
     28 C24        -4.5662    0.5609   -1.1755 C.2       1 <0>         0.4580
     29 O2         -5.1395    1.6170   -1.3010 O.co2     1 <0>        -0.6422
     30 H2          0.1065    1.4192   -0.5137 H         1 <0>         0.0709
     31 H3          0.7069    2.8913    0.2867 H         1 <0>         0.0584
     32 H4         -0.8936    2.8915   -0.4922 H         1 <0>         0.0735
     33 H5          1.9361    1.5002    2.0030 H         1 <0>         0.1502
     34 H6          4.3323    1.4761    2.8865 H         1 <0>         0.1316
     35 H7          6.4289    1.7418    4.1419 H         1 <0>         0.1313
     36 H8          4.2344    3.1813    7.5303 H         1 <0>         0.1275
     37 H9          1.4621    3.2537    7.0345 H         1 <0>         0.4144
     38 H10         5.7674    3.3845    8.4407 H         1 <0>         0.1245
     39 H11         7.8731    3.6355    9.6876 H         1 <0>         0.1233
     40 H12        10.0138    3.0508    8.6253 H         1 <0>         0.1218
     41 H13        10.0599    2.2041    6.3159 H         1 <0>         0.1243
     42 H14         7.9631    1.9363    5.0575 H         1 <0>         0.1278
     43 H15        -4.0691    1.7510    3.9735 H         1 <0>         0.0762
     44 H16        -4.2980    0.4341    2.7981 H         1 <0>         0.0892
     45 H17        -3.4399    0.1237    4.3264 H         1 <0>         0.0619
     46 H18        -4.1952    2.0222    1.0785 H         1 <0>         0.0655
     47 H19        -3.0039    2.5235   -0.1453 H         1 <0>         0.0682
     48 H20        -2.5364    0.1444   -0.6648 H         1 <0>         0.0619
     49 H21        -3.7277   -0.3569    0.5591 H         1 <0>         0.0597
     50 O3         -4.9124   -0.4858   -1.9413 O.co2     1 <0>        -0.7796
@<TRIPOS>BOND
     1    1    2 1
     2    1   30 1
     3    1   31 1
     4    1   32 1
     5    2    7 2
     6    2    3 1
     7    3    4 2
     8    3   26 1
     9    4    5 1
    10    4   25 1
    11    5    6 1
    12    5    7 1
    13    7    8 1
    14    8    9 2
    15    8   33 1
    16    9   17 1
    17    9   10 1
    18   10   15 ar
    19   10   11 ar
    20   11   12 ar
    21   11   34 1
    22   12   13 ar
    23   12   35 1
    24   13   14 ar
    25   13   19 1
    26   14   15 ar
    27   14   36 1
    28   15   16 1
    29   16   17 am
    30   16   37 1
    31   17   18 2
    32   19   24 ar
    33   19   20 ar
    34   20   21 ar
    35   20   38 1
    36   21   22 ar
    37   21   39 1
    38   22   23 ar
    39   22   40 1
    40   23   24 ar
    41   23   41 1
    42   24   42 1
    43   25   43 1
    44   25   44 1
    45   25   45 1
    46   26   27 1
    47   26   46 1
    48   26   47 1
    49   27   28 1
    50   27   48 1
    51   27   49 1
    52   28   29 2
    53   28   50 1
@<TRIPOS>MOLECULE
ZINC03834021
   24    26     0     0     0
SMALL
USER_CHARGES

@<TRIPOS>ATOM
      1 C1          2.5129    7.9271    0.0166 C.ar      1 <0>        -0.0623
      2 C2          3.5914    8.7573    0.0098 C.ar      1 <0>        -0.1474
      3 C3          4.8888    8.2437   -0.0047 C.ar      1 <0>         0.1232
      4 C4          5.1122    6.8986   -0.0129 C.ar      1 <0>        -0.1332
      5 C5          4.0239    6.0103   -0.0063 C.ar      1 <0>         0.1482
      6 C6          2.7068    6.5354    0.0089 C.ar      1 <0>        -0.1091
      7 C7          1.6166    5.6481    0.0092 C.ar      1 <0>        -0.0454
      8 C8          1.8848    4.2873    0.0058 C.ar      1 <0>        -0.0809
      9 C9          3.2172    3.8446   -0.0090 C.ar      1 <0>         0.1530
     10 N1          4.2189    4.6870   -0.0145 N.ar      1 <0>        -0.4697
     11 C10         0.7717    3.3065    0.0117 C.2       1 <0>        -0.0809
     12 C11         1.0283    1.9387    0.0027 C.2       1 <0>        -0.1534
     13 C12        -0.0126    1.0758    0.0080 C.2       1 <0>        -0.1647
     14 S1         -1.4170    2.1770    0.0194 S.3       1 <0>         0.0580
     15 C13        -0.5294    3.7257    0.0256 C.2       1 <0>        -0.1669
     16 F1          5.9400    9.0923   -0.0111 F         1 <0>        -0.1320
     17 H1          1.5133    8.3358    0.0275 H         1 <0>         0.1435
     18 H2          3.4413    9.8268    0.0162 H         1 <0>         0.1438
     19 H3          6.1226    6.5173   -0.0248 H         1 <0>         0.1498
     20 H4          0.6008    6.0149    0.0157 H         1 <0>         0.1437
     21 H5          3.4202    2.7839   -0.0164 H         1 <0>         0.1641
     22 H6          2.0441    1.5719   -0.0081 H         1 <0>         0.1399
     23 H7          0.0021   -0.0041    0.0020 H         1 <0>         0.1905
     24 H8         -0.9192    4.7328    0.0344 H         1 <0>         0.1880
@<TRIPOS>BOND
     1    1    6 ar
     2    1    2 ar
     3    1   17 1
     4    2    3 ar
     5    2   18 1
     6    3    4 ar
     7    3   16 1
     8    4    5 ar
     9    4   19 1
    10    5   10 ar
    11    5    6 ar
    12    6    7 ar
    13    7    8 ar
    14    7   20 1
    15    8    9 ar
    16    8   11 1
    17    9   10 ar
    18    9   21 1
    19   11   15 2
    20   11   12 1
    21   12   13 2
    22   12   22 1
    23   13   14 1
    24   13   23 1
    25   14   15 1
    26   15   24 1
@<TRIPOS>MOLECULE
ZINC03834022
   32    34     0     0     0
SMALL
USER_CHARGES

@<TRIPOS>ATOM
      1 C1          5.8452    3.5205   -0.2689 C.3       1 <0>         0.0219
      2 O1          4.6113    4.2368   -0.1894 O.3       1 <0>        -0.3007
      3 C2          3.4719    3.4980   -0.1249 C.ar      1 <0>         0.1255
      4 C3          3.5487    2.1358   -0.1384 C.ar      1 <0>        -0.1696
      5 C4          2.3707    1.3721   -0.0717 C.ar      1 <0>        -0.0897
      6 C5          2.4143   -0.0320   -0.0830 C.ar      1 <0>        -0.0193
      7 C6          1.2101   -0.7228   -0.0138 C.ar      1 <0>        -0.0747
      8 C7          0.0043   -0.0044    0.0641 C.ar      1 <0>         0.1529
      9 N1         -0.0134    1.3040    0.0728 N.ar      1 <0>        -0.4667
     10 C8          1.1130    2.0234    0.0085 C.ar      1 <0>         0.1478
     11 C9          1.0693    3.4275    0.0206 C.ar      1 <0>        -0.1734
     12 C10         2.2290    4.1440   -0.0457 C.ar      1 <0>         0.1458
     13 O2          2.1792    5.5019   -0.0345 O.3       1 <0>        -0.2998
     14 C11         0.8854    6.1030    0.0475 C.3       1 <0>         0.0209
     15 C12         1.1975   -2.2004   -0.0217 C.2       1 <0>        -0.1034
     16 C13         1.8659   -3.0649   -0.8480 C.2       1 <0>        -0.0569
     17 C14         1.6970   -4.4205   -0.6638 C.2       1 <0>        -0.1544
     18 C15         0.8769   -4.8562    0.3267 C.2       1 <0>        -0.1579
     19 S1          0.3135   -3.3235    1.0482 S.3       1 <0>         0.1026
     20 Cl1         2.9057   -2.4650   -2.1021 Cl        1 <0>        -0.0522
     21 H1          5.9557    2.8881    0.6119 H         1 <0>         0.0589
     22 H2          5.8478    2.8995   -1.1647 H         1 <0>         0.0587
     23 H3          6.6735    4.2277   -0.3147 H         1 <0>         0.1058
     24 H4          4.5097    1.6470   -0.2002 H         1 <0>         0.1467
     25 H5          3.3551   -0.5588   -0.1433 H         1 <0>         0.1423
     26 H6         -0.9292   -0.5449    0.1178 H         1 <0>         0.1623
     27 H7          0.1200    3.9389    0.0812 H         1 <0>         0.1529
     28 H8          0.9883    7.1882    0.0479 H         1 <0>         0.1062
     29 H9          0.2867    5.7951   -0.8097 H         1 <0>         0.0608
     30 H10         0.3943    5.7843    0.9670 H         1 <0>         0.0608
     31 H11         2.2106   -5.1270   -1.2989 H         1 <0>         0.1481
     32 H12         0.6322   -5.8695    0.6089 H         1 <0>         0.1978
@<TRIPOS>BOND
     1    1    2 1
     2    1   21 1
     3    1   22 1
     4    1   23 1
     5    2    3 1
     6    3   12 ar
     7    3    4 ar
     8    4    5 ar
     9    4   24 1
    10    5   10 ar
    11    5    6 ar
    12    6    7 ar
    13    6   25 1
    14    7    8 ar
    15    7   15 1
    16    8    9 ar
    17    8   26 1
    18    9   10 ar
    19   10   11 ar
    20   11   12 ar
    21   11   27 1
    22   12   13 1
    23   13   14 1
    24   14   28 1
    25   14   29 1
    26   14   30 1
    27   15   19 1
    28   15   16 2
    29   16   17 1
    30   16   20 1
    31   17   18 2
    32   17   31 1
    33   18   19 1
    34   18   32 1
@<TRIPOS>MOLECULE
ZINC03834023
   24    26     0     0     0
SMALL
USER_CHARGES

@<TRIPOS>ATOM
      1 C1          2.3984    0.0436   -0.0205 C.ar      1 <0>        -0.0767
      2 C2          2.4156    1.4050   -0.0134 C.ar      1 <0>        -0.0989
      3 C3          1.2059    2.1199    0.0019 C.ar      1 <0>         0.1462
      4 C4         -0.0170    1.4027    0.0098 C.ar      1 <0>        -0.1265
      5 C5         -1.2280    2.1152    0.0310 C.ar      1 <0>        -0.0472
      6 C6         -1.1680    3.5011    0.0328 C.ar      1 <0>        -0.0765
      7 C7          0.0826    4.1394    0.0242 C.ar      1 <0>         0.1527
      8 N1          1.1996    3.4575    0.0095 N.ar      1 <0>        -0.4666
      9 C8         -2.4160    4.3029    0.0495 C.2       1 <0>        -0.0826
     10 C9         -2.3683    5.6937    0.0569 C.2       1 <0>        -0.1526
     11 C10        -3.5273    6.3899    0.0717 C.2       1 <0>        -0.1652
     12 S1         -4.7498    5.0896    0.0758 S.3       1 <0>         0.0602
     13 C11        -3.6392    3.6925    0.0523 C.2       1 <0>        -0.1653
     14 C12         0.0021   -0.0041    0.0020 C.ar      1 <0>         0.1185
     15 C13         1.1975   -0.6610   -0.0129 C.ar      1 <0>        -0.1484
     16 F1         -1.1560   -0.6998    0.0097 F         1 <0>        -0.1302
     17 H1          3.3322   -0.4990   -0.0327 H         1 <0>         0.1427
     18 H2          3.3570    1.9344   -0.0192 H         1 <0>         0.1443
     19 H3         -2.1768    1.5994    0.0416 H         1 <0>         0.1444
     20 H4          0.1237    5.2186    0.0295 H         1 <0>         0.1656
     21 H5         -1.4194    6.2094    0.0506 H         1 <0>         0.1402
     22 H6         -3.6755    7.4597    0.0789 H         1 <0>         0.1909
     23 H7         -3.8730    2.6381    0.0440 H         1 <0>         0.1879
     24 H8          1.2126   -1.7409   -0.0185 H         1 <0>         0.1428
@<TRIPOS>BOND
     1    1   15 ar
     2    1    2 ar
     3    1   17 1
     4    2    3 ar
     5    2   18 1
     6    3    8 ar
     7    3    4 ar
     8    4    5 ar
     9    4   14 ar
    10    5    6 ar
    11    5   19 1
    12    6    7 ar
    13    6    9 1
    14    7    8 ar
    15    7   20 1
    16    9   13 2
    17    9   10 1
    18   10   11 2
    19   10   21 1
    20   11   12 1
    21   11   22 1
    22   12   13 1
    23   13   23 1
    24   14   15 ar
    25   14   16 1
    26   15   24 1
@<TRIPOS>MOLECULE
ZINC03834024
   35    37     0     0     0
SMALL
USER_CHARGES

@<TRIPOS>ATOM
      1 C1         -2.5766   -6.9158   -0.0100 C.3       1 <0>         0.0222
      2 O1         -3.8207   -6.2128    0.0060 O.3       1 <0>        -0.3011
      3 C2         -3.7621   -4.8546    0.0126 C.ar      1 <0>         0.1264
      4 C3         -2.5487   -4.2311    0.0044 C.ar      1 <0>        -0.1733
      5 C4         -2.4881   -2.8271    0.0117 C.ar      1 <0>        -0.0882
      6 C5         -1.2553   -2.1530   -0.0028 C.ar      1 <0>        -0.0447
      7 C6         -1.2710   -0.7657    0.0106 C.ar      1 <0>        -0.1068
      8 C7         -2.4999   -0.0880    0.0264 C.ar      1 <0>         0.1433
      9 N1         -3.6385   -0.7339    0.0343 N.ar      1 <0>        -0.4677
     10 C8         -3.6880   -2.0708    0.0276 C.ar      1 <0>         0.1422
     11 C9         -4.9211   -2.7439    0.0357 C.ar      1 <0>        -0.1720
     12 C10        -4.9502   -4.1084    0.0283 C.ar      1 <0>         0.1426
     13 O2         -6.1462   -4.7531    0.0357 O.3       1 <0>        -0.3002
     14 C11        -7.3213   -3.9401    0.0511 C.3       1 <0>         0.0212
     15 C12         0.0021   -0.0041    0.0020 C.ar      1 <0>        -0.0096
     16 C13        -0.0168    1.3897    0.0097 C.ar      1 <0>        -0.1211
     17 C14         1.1697    2.0943    0.0021 C.ar      1 <0>        -0.0831
     18 C15         2.3776    1.4208   -0.0135 C.ar      1 <0>        -0.1521
     19 C16         2.4036    0.0358   -0.0207 C.ar      1 <0>         0.1051
     20 C17         1.2204   -0.6794   -0.0132 C.ar      1 <0>        -0.1489
     21 F1          3.5865   -0.6168   -0.0355 F         1 <0>        -0.1370
     22 H1         -2.0163   -6.6425   -0.9041 H         1 <0>         0.0587
     23 H2         -1.9988   -6.6519    0.8758 H         1 <0>         0.0586
     24 H3         -2.7659   -7.9892   -0.0138 H         1 <0>         0.1058
     25 H4         -1.6392   -4.8135   -0.0073 H         1 <0>         0.1461
     26 H5         -0.3233   -2.6985   -0.0195 H         1 <0>         0.1416
     27 H6         -2.5063    0.9919    0.0319 H         1 <0>         0.1633
     28 H7         -5.8439   -2.1829    0.0474 H         1 <0>         0.1522
     29 H8         -7.3195   -3.3158    0.9447 H         1 <0>         0.0605
     30 H9         -7.3360   -3.3058   -0.8352 H         1 <0>         0.0605
     31 H10        -8.2048   -4.5785    0.0557 H         1 <0>         0.1062
     32 H11        -0.9590    1.9175    0.0170 H         1 <0>         0.1355
     33 H12         1.1550    3.1742    0.0081 H         1 <0>         0.1385
     34 H13         3.3036    1.9765   -0.0197 H         1 <0>         0.1381
     35 H14         1.2406   -1.7592   -0.0189 H         1 <0>         0.1371
@<TRIPOS>BOND
     1    1    2 1
     2    1   22 1
     3    1   23 1
     4    1   24 1
     5    2    3 1
     6    3   12 ar
     7    3    4 ar
     8    4    5 ar
     9    4   25 1
    10    5   10 ar
    11    5    6 ar
    12    6    7 ar
    13    6   26 1
    14    7    8 ar
    15    7   15 1
    16    8    9 ar
    17    8   27 1
    18    9   10 ar
    19   10   11 ar
    20   11   12 ar
    21   11   28 1
    22   12   13 1
    23   13   14 1
    24   14   29 1
    25   14   30 1
    26   14   31 1
    27   15   20 ar
    28   15   16 ar
    29   16   17 ar
    30   16   32 1
    31   17   18 ar
    32   17   33 1
    33   18   19 ar
    34   18   34 1
    35   19   20 ar
    36   19   21 1
    37   20   35 1
@<TRIPOS>MOLECULE
ZINC03834025
   36    38     0     0     0
SMALL
USER_CHARGES

@<TRIPOS>ATOM
      1 C1          5.9311   -2.0502   -0.0659 C.3       1 <0>         0.0225
      2 O1          4.7159   -2.8020   -0.0586 O.3       1 <0>        -0.3014
      3 C2          3.5539   -2.0966   -0.0438 C.ar      1 <0>         0.1263
      4 C3          3.5919   -0.7329   -0.0364 C.ar      1 <0>        -0.1742
      5 C4          2.3906   -0.0037   -0.0207 C.ar      1 <0>        -0.0864
      6 C5          2.3937    1.4014   -0.0127 C.ar      1 <0>        -0.0510
      7 C6          1.1701    2.0557    0.0019 C.ar      1 <0>        -0.0994
      8 C7         -0.0157    1.3049    0.0092 C.ar      1 <0>         0.1392
      9 N1          0.0021   -0.0041    0.0020 N.ar      1 <0>        -0.4678
     10 C8          1.1499   -0.6912   -0.0126 C.ar      1 <0>         0.1389
     11 C9          1.1459   -2.0960   -0.0207 C.ar      1 <0>        -0.1707
     12 C10         2.3277   -2.7785   -0.0360 C.ar      1 <0>         0.1402
     13 O2          2.3166   -4.1373   -0.0441 O.3       1 <0>        -0.3008
     14 C11         1.0382   -4.7757   -0.0360 C.3       1 <0>         0.0214
     15 C12         1.1158    3.5380    0.0103 C.ar      1 <0>        -0.0505
     16 C13         2.2957    4.2802    0.0088 C.ar      1 <0>        -0.0935
     17 C14         2.2419    5.6582    0.0113 C.ar      1 <0>        -0.1408
     18 C15         1.0142    6.3063    0.0260 C.ar      1 <0>         0.1091
     19 C16        -0.1627    5.5698    0.0333 C.ar      1 <0>        -0.1398
     20 C17        -0.1154    4.1916    0.0255 C.ar      1 <0>        -0.0919
     21 O3          0.9644    7.6641    0.0336 O.3       1 <0>        -0.4991
     22 H1          6.7807   -2.7329   -0.0776 H         1 <0>         0.1054
     23 H2          5.9614   -1.4173   -0.9528 H         1 <0>         0.0584
     24 H3          5.9782   -1.4268    0.8270 H         1 <0>         0.0584
     25 H4          4.5403   -0.2163   -0.0422 H         1 <0>         0.1456
     26 H5          3.3206    1.9556   -0.0182 H         1 <0>         0.1411
     27 H6         -0.9653    1.8192    0.0165 H         1 <0>         0.1617
     28 H7          0.2099   -2.6347   -0.0151 H         1 <0>         0.1515
     29 H8          0.4752   -4.4729   -0.9189 H         1 <0>         0.0603
     30 H9          1.1722   -5.8574   -0.0438 H         1 <0>         0.1059
     31 H10         0.4920   -4.4838    0.8610 H         1 <0>         0.0602
     32 H11         3.2511    3.7765    0.0019 H         1 <0>         0.1294
     33 H12         3.1557    6.2337    0.0056 H         1 <0>         0.1324
     34 H13        -1.1162    6.0768    0.0447 H         1 <0>         0.1336
     35 H14        -1.0312    3.6193    0.0316 H         1 <0>         0.1329
     36 H15         0.9584    8.0525    0.9192 H         1 <0>         0.3931
@<TRIPOS>BOND
     1    1    2 1
     2    1   22 1
     3    1   23 1
     4    1   24 1
     5    2    3 1
     6    3   12 ar
     7    3    4 ar
     8    4    5 ar
     9    4   25 1
    10    5   10 ar
    11    5    6 ar
    12    6    7 ar
    13    6   26 1
    14    7    8 ar
    15    7   15 1
    16    8    9 ar
    17    8   27 1
    18    9   10 ar
    19   10   11 ar
    20   11   12 ar
    21   11   28 1
    22   12   13 1
    23   13   14 1
    24   14   29 1
    25   14   30 1
    26   14   31 1
    27   15   20 ar
    28   15   16 ar
    29   16   17 ar
    30   16   32 1
    31   17   18 ar
    32   17   33 1
    33   18   19 ar
    34   18   21 1
    35   19   20 ar
    36   19   34 1
    37   20   35 1
    38   21   36 1
@<TRIPOS>MOLECULE
ZINC03834026
   32    34     0     0     0
SMALL
USER_CHARGES

@<TRIPOS>ATOM
      1 C1          4.7748    4.9837   -0.0144 C.3       1 <0>         0.0237
      2 O1          3.5917    5.7850    0.0007 O.3       1 <0>        -0.3111
      3 C2          2.4024    5.1287    0.0076 C.ar      1 <0>         0.1929
      4 C3          2.3864    3.7516   -0.0005 C.ar      1 <0>        -0.2402
      5 C4          1.1598    3.0684    0.0070 C.ar      1 <0>         0.1970
      6 C5         -0.0457    3.8148    0.0221 C.ar      1 <0>        -0.1450
      7 C6         -1.2721    3.1319    0.0297 C.ar      1 <0>        -0.0149
      8 C7         -1.2460    1.7442    0.0175 C.ar      1 <0>        -0.1087
      9 C8         -0.0126    1.0758    0.0080 C.ar      1 <0>         0.1650
     10 N1          1.1213    1.7308    0.0006 N.ar      1 <0>        -0.4824
     11 C9         -2.5137    0.9731    0.0194 C.2       1 <0>        -0.0741
     12 C10        -2.5001   -0.4184    0.0118 C.2       1 <0>        -0.1532
     13 C11        -3.6760   -1.0860    0.0137 C.2       1 <0>        -0.1661
     14 S1         -4.8661    0.2439    0.0266 S.3       1 <0>         0.0511
     15 C12        -3.7212    1.6133    0.0344 C.2       1 <0>        -0.1696
     16 C13         0.0036    5.2242    0.0297 C.ar      1 <0>         0.1949
     17 C14         1.2124    5.8595    0.0225 C.ar      1 <0>        -0.2448
     18 O2         -1.1460    5.9464    0.0436 O.3       1 <0>        -0.3062
     19 C15        -1.0180    7.3696    0.0506 C.3       1 <0>         0.0222
     20 H1          4.7954    4.3495    0.8718 H         1 <0>         0.0612
     21 H2          4.7795    4.3596   -0.9080 H         1 <0>         0.0612
     22 H3          5.6519    5.6308   -0.0186 H         1 <0>         0.1043
     23 H4          3.3143    3.1990   -0.0116 H         1 <0>         0.1438
     24 H5         -2.2082    3.6703    0.0411 H         1 <0>         0.1446
     25 H6          0.0021   -0.0041    0.0020 H         1 <0>         0.1624
     26 H7         -1.5642   -0.9572    0.0047 H         1 <0>         0.1389
     27 H8         -3.8505   -2.1518    0.0088 H         1 <0>         0.1894
     28 H9         -3.9288    2.6731    0.0460 H         1 <0>         0.1873
     29 H10         1.2485    6.9388    0.0286 H         1 <0>         0.1443
     30 H11        -0.4660    7.6804    0.9376 H         1 <0>         0.0625
     31 H12        -0.4813    7.6905   -0.8422 H         1 <0>         0.0625
     32 H13        -2.0089    7.8235    0.0616 H         1 <0>         0.1071
@<TRIPOS>BOND
     1    1    2 1
     2    1   20 1
     3    1   21 1
     4    1   22 1
     5    2    3 1
     6    3   17 ar
     7    3    4 ar
     8    4    5 ar
     9    4   23 1
    10    5   10 ar
    11    5    6 ar
    12    6    7 ar
    13    6   16 ar
    14    7    8 ar
    15    7   24 1
    16    8    9 ar
    17    8   11 1
    18    9   10 ar
    19    9   25 1
    20   11   15 2
    21   11   12 1
    22   12   13 2
    23   12   26 1
    24   13   14 1
    25   13   27 1
    26   14   15 1
    27   15   28 1
    28   16   17 ar
    29   16   18 1
    30   17   29 1
    31   18   19 1
    32   19   30 1
    33   19   31 1
    34   19   32 1
@<TRIPOS>MOLECULE
ZINC03834028
   35    37     0     0     0
SMALL
USER_CHARGES

@<TRIPOS>ATOM
      1 C1          0.0125    7.9040    0.0426 C.3       1 <0>         0.0224
      2 O1          1.2618    7.2104    0.0272 O.3       1 <0>        -0.3012
      3 C2          1.2135    5.8519    0.0207 C.ar      1 <0>         0.1267
      4 C3          0.0048    5.2192    0.0293 C.ar      1 <0>        -0.1742
      5 C4         -0.0451    3.8148    0.0231 C.ar      1 <0>        -0.0867
      6 C5         -1.2729    3.1314    0.0315 C.ar      1 <0>        -0.0492
      7 C6         -1.2466    1.7442    0.0175 C.ar      1 <0>        -0.1012
      8 C7         -0.0126    1.0758    0.0080 C.ar      1 <0>         0.1398
      9 N1          1.1211    1.7303    0.0006 N.ar      1 <0>        -0.4673
     10 C8          1.1605    3.0676    0.0075 C.ar      1 <0>         0.1399
     11 C9          2.3884    3.7500   -0.0012 C.ar      1 <0>        -0.1711
     12 C10         2.4072    5.1146    0.0056 C.ar      1 <0>         0.1411
     13 O2          3.5984    5.7684   -0.0028 O.3       1 <0>        -0.3006
     14 C11         4.7796    4.9643   -0.0185 C.3       1 <0>         0.0213
     15 C12        -2.5139    0.9730    0.0189 C.ar      1 <0>        -0.0510
     16 C13        -3.7377    1.6397    0.0342 C.ar      1 <0>        -0.0820
     17 C14        -4.9139    0.9184    0.0301 C.ar      1 <0>        -0.1484
     18 C15        -4.8796   -0.4667    0.0219 C.ar      1 <0>         0.1016
     19 C16        -3.6652   -1.1336    0.0120 C.ar      1 <0>        -0.1474
     20 C17        -2.4841   -0.4204    0.0107 C.ar      1 <0>        -0.0803
     21 F1         -6.0337   -1.1690    0.0232 F         1 <0>        -0.1368
     22 H1         -0.5629    7.6356   -0.8434 H         1 <0>         0.0585
     23 H2         -0.5461    7.6265    0.9364 H         1 <0>         0.0585
     24 H3          0.1936    8.9788    0.0464 H         1 <0>         0.1056
     25 H4         -0.9090    5.7947    0.0405 H         1 <0>         0.1459
     26 H5         -2.2090    3.6698    0.0434 H         1 <0>         0.1416
     27 H6          0.0021   -0.0041    0.0020 H         1 <0>         0.1620
     28 H7          3.3155    3.1960   -0.0135 H         1 <0>         0.1518
     29 H8          4.7995    4.3306    0.8681 H         1 <0>         0.0604
     30 H9          4.7820    4.3397   -0.9117 H         1 <0>         0.0604
     31 H10         5.6582    5.6094   -0.0239 H         1 <0>         0.1060
     32 H11        -3.7654    2.7193    0.0451 H         1 <0>         0.1352
     33 H12        -5.8627    1.4342    0.0378 H         1 <0>         0.1395
     34 H13        -3.6430   -2.2133    0.0057 H         1 <0>         0.1407
     35 H14        -1.5379   -0.9410    0.0037 H         1 <0>         0.1386
@<TRIPOS>BOND
     1    1    2 1
     2    1   22 1
     3    1   23 1
     4    1   24 1
     5    2    3 1
     6    3   12 ar
     7    3    4 ar
     8    4    5 ar
     9    4   25 1
    10    5   10 ar
    11    5    6 ar
    12    6    7 ar
    13    6   26 1
    14    7    8 ar
    15    7   15 1
    16    8    9 ar
    17    8   27 1
    18    9   10 ar
    19   10   11 ar
    20   11   12 ar
    21   11   28 1
    22   12   13 1
    23   13   14 1
    24   14   29 1
    25   14   30 1
    26   14   31 1
    27   15   20 ar
    28   15   16 ar
    29   16   17 ar
    30   16   32 1
    31   17   18 ar
    32   17   33 1
    33   18   19 ar
    34   18   21 1
    35   19   20 ar
    36   19   34 1
    37   20   35 1
@<TRIPOS>MOLECULE
ZINC03834029
   37    39     0     0     0
SMALL
USER_CHARGES

@<TRIPOS>ATOM
      1 C1         11.9154    0.0213   -0.1107 C.3       1 <0>         0.0220
      2 O1         11.9288   -1.4076   -0.1176 O.3       1 <0>        -0.3008
      3 C2         10.7235   -2.0361   -0.1096 C.ar      1 <0>         0.1257
      4 C3          9.5767   -1.2972   -0.0956 C.ar      1 <0>        -0.1707
      5 C4          8.3303   -1.9473   -0.0877 C.ar      1 <0>        -0.0907
      6 C5          7.1312   -1.2168   -0.0729 C.ar      1 <0>        -0.0305
      7 C6          5.9338   -1.9266   -0.0653 C.ar      1 <0>        -0.0403
      8 C7          5.9640   -3.3334   -0.0672 C.ar      1 <0>         0.1552
      9 N1          7.0936   -3.9929   -0.0865 N.ar      1 <0>        -0.4682
     10 C8          8.2756   -3.3651   -0.0944 C.ar      1 <0>         0.1458
     11 C9          9.4750   -4.0957   -0.1094 C.ar      1 <0>        -0.1730
     12 C10        10.6713   -3.4382   -0.1163 C.ar      1 <0>         0.1450
     13 O2         11.8277   -4.1515   -0.1303 O.3       1 <0>        -0.2999
     14 C11        11.7113   -5.5758   -0.1366 C.3       1 <0>         0.0209
     15 C12         4.6822   -1.2311   -0.0496 C.1       1 <0>        -0.1164
     16 C13         3.6560   -0.6610   -0.0368 C.1       1 <0>        -0.1022
     17 C14         2.4043    0.0345   -0.0211 C.ar      1 <0>         0.0082
     18 C15         1.2037   -0.6807   -0.0135 C.ar      1 <0>        -0.0935
     19 C16         0.0021   -0.0041    0.0020 C.ar      1 <0>        -0.1192
     20 C17        -0.0167    1.3796    0.0096 C.ar      1 <0>        -0.1075
     21 C18         1.1681    2.0946    0.0022 C.ar      1 <0>        -0.1189
     22 C19         2.3774    1.4317   -0.0129 C.ar      1 <0>        -0.0927
     23 H1         12.9396    0.3943   -0.1183 H         1 <0>         0.1058
     24 H2         11.3901    0.3841   -0.9942 H         1 <0>         0.0588
     25 H3         11.4064    0.3756    0.7857 H         1 <0>         0.0588
     26 H4          9.6262   -0.2184   -0.0901 H         1 <0>         0.1470
     27 H5          7.1378   -0.1368   -0.0672 H         1 <0>         0.1436
     28 H6          5.0332   -3.8812   -0.0571 H         1 <0>         0.1648
     29 H7          9.4509   -5.1754   -0.1154 H         1 <0>         0.1530
     30 H8         11.1776   -5.9006    0.7566 H         1 <0>         0.0609
     31 H9         11.1616   -5.8915   -1.0233 H         1 <0>         0.0609
     32 H10        12.7060   -6.0215   -0.1478 H         1 <0>         0.1063
     33 H11         1.2169   -1.7606   -0.0202 H         1 <0>         0.1272
     34 H12        -0.9266   -0.5554    0.0079 H         1 <0>         0.1294
     35 H13        -0.9607    1.9041    0.0169 H         1 <0>         0.1273
     36 H14         1.1457    3.1743    0.0081 H         1 <0>         0.1297
     37 H15         3.3013    1.9909   -0.0183 H         1 <0>         0.1283
@<TRIPOS>BOND
     1    1    2 1
     2    1   23 1
     3    1   24 1
     4    1   25 1
     5    2    3 1
     6    3   12 ar
     7    3    4 ar
     8    4    5 ar
     9    4   26 1
    10    5   10 ar
    11    5    6 ar
    12    6    7 ar
    13    6   27 1
    14    7    8 ar
    15    7   15 1
    16    8    9 ar
    17    8   28 1
    18    9   10 ar
    19   10   11 ar
    20   11   12 ar
    21   11   29 1
    22   12   13 1
    23   13   14 1
    24   14   30 1
    25   14   31 1
    26   14   32 1
    27   15   16 3
    28   16   17 1
    29   17   22 ar
    30   17   18 ar
    31   18   19 ar
    32   18   33 1
    33   19   20 ar
    34   19   34 1
    35   20   21 ar
    36   20   35 1
    37   21   22 ar
    38   21   36 1
    39   22   37 1
@<TRIPOS>MOLECULE
ZINC03834030
   40    42     0     0     0
SMALL
USER_CHARGES

@<TRIPOS>ATOM
      1 C1          1.4438   -4.7328   -0.0359 C.3       1 <0>         0.0233
      2 O1          2.6698   -3.9987   -0.0436 O.3       1 <0>        -0.3026
      3 C2          2.5771   -2.6425   -0.0358 C.ar      1 <0>         0.1378
      4 C3          1.3481   -2.0498   -0.0214 C.ar      1 <0>        -0.1918
      5 C4          1.2522   -0.6483   -0.0134 C.ar      1 <0>        -0.0348
      6 C5          0.0021   -0.0041    0.0020 C.ar      1 <0>        -0.1623
      7 C6         -0.0167    1.3778    0.0096 C.ar      1 <0>         0.1662
      8 C7          1.1902    2.0863    0.0019 C.ar      1 <0>         0.0779
      9 N1          2.3474    1.4720   -0.0120 N.ar      1 <0>        -0.4356
     10 C8          2.4322    0.1377   -0.0204 C.ar      1 <0>         0.0889
     11 C9          3.6828   -0.5041   -0.0348 C.ar      1 <0>        -0.1502
     12 C10         3.7460   -1.8668   -0.0423 C.ar      1 <0>         0.1147
     13 O2          4.9582   -2.4814   -0.0557 O.3       1 <0>        -0.3045
     14 C11         6.1126   -1.6392   -0.0617 C.3       1 <0>         0.0233
     15 N2         -1.2344    2.0641    0.0191 N.pl3     1 <0>        -0.7356
     16 C12        -1.2497    3.5290    0.0271 C.3       1 <0>         0.1632
     17 C13        -2.6756    4.0165    0.0365 C.ar      1 <0>        -0.1109
     18 C14        -3.3334    4.2520   -1.1562 C.ar      1 <0>        -0.0998
     19 C15        -4.6431    4.6941   -1.1476 C.ar      1 <0>        -0.1219
     20 C16        -5.2915    4.9112    0.0538 C.ar      1 <0>        -0.1103
     21 C17        -4.6318    4.6811    1.2466 C.ar      1 <0>        -0.1219
     22 C18        -3.3239    4.2336    1.2380 C.ar      1 <0>        -0.0999
     23 H1          0.8764   -4.4832    0.8607 H         1 <0>         0.0577
     24 H2          0.8598   -4.4741   -0.9192 H         1 <0>         0.0577
     25 H3          1.6599   -5.8012   -0.0433 H         1 <0>         0.1038
     26 H4          0.4537   -2.6551   -0.0165 H         1 <0>         0.1420
     27 H5         -0.9162   -0.5725    0.0074 H         1 <0>         0.1340
     28 H6          1.1671    3.1660    0.0075 H         1 <0>         0.1563
     29 H7          4.5911    0.0801   -0.0402 H         1 <0>         0.1475
     30 H8          6.0956   -1.0057   -0.9486 H         1 <0>         0.0580
     31 H9          6.1110   -1.0142    0.8313 H         1 <0>         0.0580
     32 H10         7.0117   -2.2553   -0.0725 H         1 <0>         0.1032
     33 H11        -2.0694    1.5704    0.0204 H         1 <0>         0.4031
     34 H12        -0.7354    3.8928    0.9167 H         1 <0>         0.0717
     35 H13        -0.7438    3.9025   -0.8632 H         1 <0>         0.0718
     36 H14        -2.8254    4.0866   -2.0949 H         1 <0>         0.1241
     37 H15        -5.1586    4.8735   -2.0796 H         1 <0>         0.1249
     38 H16        -6.3135    5.2602    0.0605 H         1 <0>         0.1242
     39 H17        -5.1383    4.8507    2.1853 H         1 <0>         0.1249
     40 H18        -2.8085    4.0538    2.1699 H         1 <0>         0.1241
@<TRIPOS>BOND
     1    1    2 1
     2    1   23 1
     3    1   24 1
     4    1   25 1
     5    2    3 1
     6    3   12 ar
     7    3    4 ar
     8    4    5 ar
     9    4   26 1
    10    5   10 ar
    11    5    6 ar
    12    6    7 ar
    13    6   27 1
    14    7    8 ar
    15    7   15 1
    16    8    9 ar
    17    8   28 1
    18    9   10 ar
    19   10   11 ar
    20   11   12 ar
    21   11   29 1
    22   12   13 1
    23   13   14 1
    24   14   30 1
    25   14   31 1
    26   14   32 1
    27   15   16 1
    28   15   33 1
    29   16   17 1
    30   16   34 1
    31   16   35 1
    32   17   22 ar
    33   17   18 ar
    34   18   19 ar
    35   18   36 1
    36   19   20 ar
    37   19   37 1
    38   20   21 ar
    39   20   38 1
    40   21   22 ar
    41   21   39 1
    42   22   40 1
@<TRIPOS>MOLECULE
ZINC03834031
   39    41     0     0     0
SMALL
USER_CHARGES

@<TRIPOS>ATOM
      1 C1          2.8020    8.1189    0.0201 C.3       1 <0>         0.0220
      2 O1          4.0089    7.3540    0.0053 O.3       1 <0>        -0.3008
      3 C2          3.8817    6.0005   -0.0008 C.ar      1 <0>         0.1370
      4 C3          2.6380    5.4393    0.0072 C.ar      1 <0>        -0.1835
      5 C4          2.5064    4.0409    0.0003 C.ar      1 <0>        -0.0494
      6 C5          1.2406    3.4276    0.0086 C.ar      1 <0>        -0.1055
      7 C6          1.1854    2.0584    0.0018 C.ar      1 <0>         0.0760
      8 C7          2.3688    1.3150   -0.0077 C.ar      1 <0>         0.0609
      9 N1          3.5448    1.8938   -0.0202 N.ar      1 <0>        -0.4356
     10 C8          3.6662    3.2254   -0.0147 C.ar      1 <0>         0.1059
     11 C9          4.9327    3.8347   -0.0231 C.ar      1 <0>        -0.1577
     12 C10         5.0306    5.1955   -0.0158 C.ar      1 <0>         0.1274
     13 O2          6.2580    5.7792   -0.0235 O.3       1 <0>        -0.3019
     14 C11         7.3906    4.9080   -0.0388 C.3       1 <0>         0.0220
     15 O3         -0.0173    1.4248    0.0099 O.3       1 <0>        -0.3022
     16 C12         0.0021   -0.0041    0.0020 C.3       1 <0>         0.0978
     17 C13        -1.4117   -0.5257    0.0127 C.ar      1 <0>        -0.0993
     18 C14        -2.0468   -0.7767    1.2146 C.ar      1 <0>        -0.0946
     19 C15        -3.3455   -1.2502    1.2245 C.ar      1 <0>        -0.1229
     20 C16        -4.0053   -1.4830    0.0323 C.ar      1 <0>        -0.1078
     21 C17        -3.3683   -1.2374   -1.1696 C.ar      1 <0>        -0.1229
     22 C18        -2.0716   -0.7585   -1.1795 C.ar      1 <0>        -0.0946
     23 H1          2.2122    7.8842   -0.8659 H         1 <0>         0.0590
     24 H2          2.2279    7.8746    0.9139 H         1 <0>         0.0590
     25 H3          3.0453    9.1814    0.0237 H         1 <0>         0.1054
     26 H4          1.7593    6.0672    0.0190 H         1 <0>         0.1466
     27 H5          0.3373    4.0195    0.0204 H         1 <0>         0.1457
     28 H6          2.3129    0.2365   -0.0088 H         1 <0>         0.1625
     29 H7          5.8258    3.2275   -0.0346 H         1 <0>         0.1507
     30 H8          7.3734    4.2741    0.8478 H         1 <0>         0.0593
     31 H9          7.3573    4.2843   -0.9320 H         1 <0>         0.0593
     32 H10         8.3051    5.5011   -0.0436 H         1 <0>         0.1051
     33 H11         0.5123   -0.3556   -0.8948 H         1 <0>         0.0751
     34 H12         0.5293   -0.3651    0.8851 H         1 <0>         0.0751
     35 H13        -1.5297   -0.5990    2.1460 H         1 <0>         0.1248
     36 H14        -3.8433   -1.4417    2.1636 H         1 <0>         0.1263
     37 H15        -5.0187   -1.8564    0.0400 H         1 <0>         0.1252
     38 H16        -3.8838   -1.4192   -2.1011 H         1 <0>         0.1262
     39 H17        -1.5739   -0.5666   -2.1185 H         1 <0>         0.1248
@<TRIPOS>BOND
     1    1    2 1
     2    1   23 1
     3    1   24 1
     4    1   25 1
     5    2    3 1
     6    3   12 ar
     7    3    4 ar
     8    4    5 ar
     9    4   26 1
    10    5   10 ar
    11    5    6 ar
    12    6    7 ar
    13    6   27 1
    14    7    8 ar
    15    7   15 1
    16    8    9 ar
    17    8   28 1
    18    9   10 ar
    19   10   11 ar
    20   11   12 ar
    21   11   29 1
    22   12   13 1
    23   13   14 1
    24   14   30 1
    25   14   31 1
    26   14   32 1
    27   15   16 1
    28   16   17 1
    29   16   33 1
    30   16   34 1
    31   17   22 ar
    32   17   18 ar
    33   18   19 ar
    34   18   35 1
    35   19   20 ar
    36   19   36 1
    37   20   21 ar
    38   20   37 1
    39   21   22 ar
    40   21   38 1
    41   22   39 1
@<TRIPOS>MOLECULE
ZINC03834032
   40    42     0     0     0
SMALL
USER_CHARGES

@<TRIPOS>ATOM
      1 C1          2.3355    2.0608   -0.1114 C.3       1 <0>        -0.0903
      2 C2          0.8597    2.3235   -0.2670 C.2       1 <0>        -0.0813
      3 C3          0.2566    3.5618   -0.4946 C.2       1 <0>        -0.1584
      4 C4         -1.0833    3.3665   -0.5730 C.2       1 <0>         0.0723
      5 N1         -1.3469    2.0457   -0.4087 N.pl3     1 <0>        -0.5120
      6 H1         -2.2268    1.6378   -0.4247 H         1 <0>         0.4155
      7 C5         -0.1556    1.3809   -0.2113 C.2       1 <0>        -0.0360
      8 C6          0.0021   -0.0041    0.0020 C.2       1 <0>         0.1041
      9 C7         -0.9659   -0.7120    0.6886 C.2       1 <0>        -0.2329
     10 C8         -1.0457   -2.1775    0.8763 C.ar      1 <0>        -0.0833
     11 C9         -0.2455   -3.2373    0.4616 C.ar      1 <0>        -0.0729
     12 C10        -0.5899   -4.5293    0.8035 C.ar      1 <0>        -0.1392
     13 C11        -1.7274   -4.7687    1.5567 C.ar      1 <0>        -0.0940
     14 C12        -2.5279   -3.7246    1.9729 C.ar      1 <0>        -0.1371
     15 C13        -2.1978   -2.4158    1.6381 C.ar      1 <0>         0.1338
     16 N2         -2.8154   -1.2041    1.9219 N.am      1 <0>        -0.6544
     17 C14        -2.1345   -0.1721    1.3953 C.2       1 <0>         0.5549
     18 O1         -2.4356    1.0049    1.4857 O.2       1 <0>        -0.5122
     19 C15        -2.1123    4.4415   -0.8108 C.3       1 <0>        -0.0923
     20 C16         0.9690    4.8829   -0.6298 C.3       1 <0>        -0.0291
     21 C17         1.3229    5.1235   -2.0987 C.3       1 <0>        -0.1463
     22 C18         2.0353    6.4446   -2.2339 C.2       1 <0>         0.4582
     23 O2          2.2389    7.1240   -1.2557 O.co2     1 <0>        -0.6425
     24 H2          2.7719    1.8501   -1.0877 H         1 <0>         0.0707
     25 H3          2.8171    2.9382    0.3202 H         1 <0>         0.0733
     26 H4          2.4847    1.2042    0.5458 H         1 <0>         0.0583
     27 H5          0.8793   -0.5115   -0.3712 H         1 <0>         0.1497
     28 H6          0.6417   -3.0498   -0.1250 H         1 <0>         0.1280
     29 H7          0.0287   -5.3548    0.4836 H         1 <0>         0.1276
     30 H8         -1.9907   -5.7824    1.8204 H         1 <0>         0.1279
     31 H9         -3.4123   -3.9241    2.5598 H         1 <0>         0.1238
     32 H10        -3.6320   -1.1141    2.4377 H         1 <0>         0.4139
     33 H11        -2.2796    4.5537   -1.8820 H         1 <0>         0.0757
     34 H12        -3.0472    4.1636   -0.3242 H         1 <0>         0.0629
     35 H13        -1.7543    5.3847   -0.3982 H         1 <0>         0.0887
     36 H14         0.3193    5.6838   -0.2767 H         1 <0>         0.0653
     37 H15         1.8817    4.8662   -0.0341 H         1 <0>         0.0677
     38 H16         1.9726    4.3226   -2.4518 H         1 <0>         0.0616
     39 H17         0.4102    5.1402   -2.6943 H         1 <0>         0.0597
     40 O3          2.4435    6.8666   -3.4410 O.co2     1 <0>        -0.7797
@<TRIPOS>BOND
     1    1    2 1
     2    1   24 1
     3    1   25 1
     4    1   26 1
     5    2    7 2
     6    2    3 1
     7    3    4 2
     8    3   20 1
     9    4    5 1
    10    4   19 1
    11    5    6 1
    12    5    7 1
    13    7    8 1
    14    8    9 2
    15    8   27 1
    16    9   17 1
    17    9   10 1
    18   10   15 ar
    19   10   11 ar
    20   11   12 ar
    21   11   28 1
    22   12   13 ar
    23   12   29 1
    24   13   14 ar
    25   13   30 1
    26   14   15 ar
    27   14   31 1
    28   15   16 1
    29   16   17 am
    30   16   32 1
    31   17   18 2
    32   19   33 1
    33   19   34 1
    34   19   35 1
    35   20   21 1
    36   20   36 1
    37   20   37 1
    38   21   22 1
    39   21   38 1
    40   21   39 1
    41   22   23 2
    42   22   40 1
@<TRIPOS>MOLECULE
ZINC03834033
   40    42     0     0     0
SMALL
USER_CHARGES

@<TRIPOS>ATOM
      1 C1         -0.3079    1.0812    0.1612 C.3       1 <0>        -0.0917
      2 C2         -0.8840    1.3961    1.5177 C.2       1 <0>        -0.0766
      3 C3         -2.2386    1.4636    1.8487 C.2       1 <0>        -0.1584
      4 C4         -2.3324    1.7701    3.1667 C.2       1 <0>         0.0765
      5 N1         -1.0830    1.9073    3.6776 N.pl3     1 <0>        -0.5120
      6 H1         -0.8687    2.1285    4.5975 H         1 <0>         0.4159
      7 C5         -0.1690    1.6794    2.6713 C.2       1 <0>        -0.0398
      8 C6          1.2352    1.7259    2.7927 C.2       1 <0>         0.1129
      9 C7          1.8239    2.6205    3.6659 C.2       1 <0>        -0.2379
     10 C8          3.2533    2.7058    4.0388 C.ar      1 <0>        -0.0756
     11 C9          4.3826    1.9875    3.6590 C.ar      1 <0>        -0.0443
     12 C10         5.6140    2.3168    4.1901 C.ar      1 <0>        -0.1111
     13 C11         5.7237    3.3622    5.0934 C.ar      1 <0>        -0.0643
     14 C12         4.6101    4.0842    5.4716 C.ar      1 <0>        -0.1308
     15 C13         3.3616    3.7674    4.9474 C.ar      1 <0>         0.1517
     16 N2          2.1036    4.3204    5.1545 N.am      1 <0>        -0.6523
     17 C14         1.1654    3.6881    4.4294 C.2       1 <0>         0.5567
     18 O1         -0.0234    3.9538    4.4093 O.2       1 <0>        -0.5074
     19 Br1         7.1523    1.3399    3.6849 Br        1 <0>        -0.0479
     20 C15        -3.6166    1.9373    3.9374 C.3       1 <0>        -0.0928
     21 C16        -3.3933    1.2328    0.9082 C.3       1 <0>        -0.0297
     22 C17        -3.7731   -0.2492    0.9211 C.3       1 <0>        -0.1470
     23 C18        -4.9278   -0.4800   -0.0194 C.2       1 <0>         0.4580
     24 O2         -5.3986    0.4458   -0.6366 O.co2     1 <0>        -0.6421
     25 H2         -0.1566    0.0055    0.0716 H         1 <0>         0.0718
     26 H3          0.6471    1.5934    0.0442 H         1 <0>         0.0589
     27 H4         -0.9976    1.4168   -0.6132 H         1 <0>         0.0742
     28 H5          1.8504    1.0623    2.2032 H         1 <0>         0.1512
     29 H6          4.2959    1.1728    2.9553 H         1 <0>         0.1382
     30 H7          6.6898    3.6144    5.5049 H         1 <0>         0.1387
     31 H8          4.7084    4.8967    6.1763 H         1 <0>         0.1346
     32 H9          1.9255    5.0675    5.7470 H         1 <0>         0.4164
     33 H10        -3.9385    2.9774    3.8858 H         1 <0>         0.0768
     34 H11        -4.3856    1.2971    3.5052 H         1 <0>         0.0898
     35 H12        -3.4544    1.6584    4.9785 H         1 <0>         0.0625
     36 H13        -4.2474    1.8296    1.2282 H         1 <0>         0.0658
     37 H14        -3.1037    1.5249   -0.1012 H         1 <0>         0.0685
     38 H15        -2.9190   -0.8460    0.6011 H         1 <0>         0.0620
     39 H16        -4.0627   -0.5414    1.9305 H         1 <0>         0.0598
     40 O3         -5.4332   -1.7142   -0.1714 O.co2     1 <0>        -0.7793
@<TRIPOS>BOND
     1    1    2 1
     2    1   25 1
     3    1   26 1
     4    1   27 1
     5    2    7 2
     6    2    3 1
     7    3    4 2
     8    3   21 1
     9    4    5 1
    10    4   20 1
    11    5    6 1
    12    5    7 1
    13    7    8 1
    14    8    9 2
    15    8   28 1
    16    9   17 1
    17    9   10 1
    18   10   15 ar
    19   10   11 ar
    20   11   12 ar
    21   11   29 1
    22   12   13 ar
    23   12   19 1
    24   13   14 ar
    25   13   30 1
    26   14   15 ar
    27   14   31 1
    28   15   16 1
    29   16   17 am
    30   16   32 1
    31   17   18 2
    32   20   33 1
    33   20   34 1
    34   20   35 1
    35   21   22 1
    36   21   36 1
    37   21   37 1
    38   22   23 1
    39   22   38 1
    40   22   39 1
    41   23   24 2
    42   23   40 1
@<TRIPOS>MOLECULE
ZINC03834034
   32    34     0     0     0
SMALL
USER_CHARGES

@<TRIPOS>ATOM
      1 C1          6.6800    7.6451   -0.0225 C.3       1 <0>         0.0220
      2 O1          5.7418    8.7228   -0.0086 O.3       1 <0>        -0.3009
      3 C2          4.4230    8.3930    0.0024 C.ar      1 <0>         0.1273
      4 C3          4.0556    7.0790   -0.0002 C.ar      1 <0>        -0.1732
      5 C4          2.6921    6.7381    0.0112 C.ar      1 <0>        -0.0847
      6 C5          2.2795    5.3952    0.0085 C.ar      1 <0>        -0.0460
      7 C6          0.9148    5.1321    0.0197 C.ar      1 <0>        -0.0605
      8 C7          0.0040    6.2026    0.0278 C.ar      1 <0>         0.1509
      9 N1          0.4102    7.4465    0.0351 N.ar      1 <0>        -0.4648
     10 C8          1.7105    7.7621    0.0252 C.ar      1 <0>         0.1412
     11 C9          2.1228    9.1050    0.0275 C.ar      1 <0>        -0.1710
     12 C10         3.4537    9.4072    0.0158 C.ar      1 <0>         0.1425
     13 O2          3.8454   10.7084    0.0177 O.3       1 <0>        -0.3002
     14 C11         2.8133   11.6966    0.0316 C.3       1 <0>         0.0211
     15 C12         0.4251    3.7375    0.0170 C.2       1 <0>        -0.1082
     16 C13        -0.8640    3.2756    0.0265 C.2       1 <0>        -0.1437
     17 C14        -1.0799    1.9148    0.0166 C.2       1 <0>        -0.1547
     18 C15        -0.0126    1.0758    0.0080 C.2       1 <0>        -0.1694
     19 S1          1.3604    2.2168    0.0010 S.3       1 <0>         0.0545
     20 H1          6.5226    7.0378   -0.9139 H         1 <0>         0.0588
     21 H2          7.6937    8.0458   -0.0303 H         1 <0>         0.1058
     22 H3          6.5395    7.0295    0.8660 H         1 <0>         0.0588
     23 H4          4.8086    6.3049   -0.0113 H         1 <0>         0.1466
     24 H5          3.0009    4.5916   -0.0017 H         1 <0>         0.1396
     25 H6         -1.0556    5.9936    0.0324 H         1 <0>         0.1631
     26 H7          1.3882    9.8967    0.0377 H         1 <0>         0.1525
     27 H8          3.2615   12.6902    0.0317 H         1 <0>         0.1061
     28 H9          2.1872   11.5805   -0.8530 H         1 <0>         0.0606
     29 H10         2.2039   11.5729    0.9269 H         1 <0>         0.0606
     30 H11        -1.6955    3.9647    0.0378 H         1 <0>         0.1380
     31 H12        -2.0854    1.5206    0.0190 H         1 <0>         0.1385
     32 H13         0.0021   -0.0041    0.0020 H         1 <0>         0.1889
@<TRIPOS>BOND
     1    1    2 1
     2    1   20 1
     3    1   21 1
     4    1   22 1
     5    2    3 1
     6    3   12 ar
     7    3    4 ar
     8    4    5 ar
     9    4   23 1
    10    5   10 ar
    11    5    6 ar
    12    6    7 ar
    13    6   24 1
    14    7    8 ar
    15    7   15 1
    16    8    9 ar
    17    8   25 1
    18    9   10 ar
    19   10   11 ar
    20   11   12 ar
    21   11   26 1
    22   12   13 1
    23   13   14 1
    24   14   27 1
    25   14   28 1
    26   14   29 1
    27   15   19 1
    28   15   16 2
    29   16   17 1
    30   16   30 1
    31   17   18 2
    32   17   31 1
    33   18   19 1
    34   18   32 1
@<TRIPOS>MOLECULE
ZINC03834035
   54    57     0     0     0
SMALL
USER_CHARGES

@<TRIPOS>ATOM
      1 C1          1.8272   13.1745    1.1075 C.3       1 <0>        -0.0914
      2 C2          0.4907   13.0817    0.4175 C.2       1 <0>        -0.0803
      3 C3         -0.3632   14.1442    0.1160 C.2       1 <0>        -0.1583
      4 C4         -1.4610   13.6373   -0.4985 C.2       1 <0>         0.0725
      5 N1         -1.3275   12.2908   -0.6001 N.pl3     1 <0>        -0.5125
      6 H1         -1.9725   11.6866   -0.9999 H         1 <0>         0.4153
      7 C5         -0.1218   11.9252   -0.0407 C.2       1 <0>        -0.0362
      8 C6          0.3913   10.6153    0.0536 C.2       1 <0>         0.1049
      9 C7         -0.4673    9.5485    0.2419 C.2       1 <0>        -0.2318
     10 C8         -0.1322    8.1081    0.2120 C.ar      1 <0>        -0.0758
     11 C9          1.0556    7.4113    0.0030 C.ar      1 <0>        -0.0708
     12 C10         1.0582    6.0346    0.0353 C.ar      1 <0>        -0.1230
     13 C11        -0.1287    5.3401    0.2772 C.ar      1 <0>        -0.0251
     14 C12        -1.3191    6.0313    0.4811 C.ar      1 <0>        -0.1225
     15 C13        -1.3295    7.4191    0.4559 C.ar      1 <0>         0.1382
     16 N2         -2.3572    8.3386    0.6297 N.am      1 <0>        -0.6539
     17 C14        -1.9095    9.6003    0.5149 C.2       1 <0>         0.5550
     18 O1         -2.5821   10.6106    0.6197 O.2       1 <0>        -0.5085
     19 C15        -0.1218    3.8575    0.3112 C.ar      1 <0>        -0.0002
     20 C16        -1.3037    3.1580    0.5518 C.ar      1 <0>        -0.1480
     21 C17        -1.2957    1.7781    0.5768 C.ar      1 <0>        -0.0771
     22 C18        -0.1159    1.0861    0.3750 C.ar      1 <0>        -0.2094
     23 C19         1.0651    1.7746    0.1348 C.ar      1 <0>         0.1293
     24 C20         1.0654    3.1596    0.1023 C.ar      1 <0>        -0.1422
     25 O2          2.2215    1.0901   -0.0681 O.3       1 <0>        -0.3172
     26 C21         2.1480   -0.3362   -0.0203 C.3       1 <0>         0.0273
     27 C22        -2.6388   14.4396   -0.9884 C.3       1 <0>        -0.0913
     28 C23        -0.1119   15.5978    0.4241 C.3       1 <0>        -0.0285
     29 C24        -0.6706   15.9295    1.8093 C.3       1 <0>        -0.1476
     30 C25        -0.4194   17.3831    2.1174 C.2       1 <0>         0.4586
     31 O3          0.1482   18.0821    1.3118 O.co2     1 <0>        -0.6430
     32 H2          2.6115   13.3133    0.3634 H         1 <0>         0.0687
     33 H3          1.8237   14.0212    1.7939 H         1 <0>         0.0751
     34 H4          2.0132   12.2561    1.6644 H         1 <0>         0.0594
     35 H5          1.4553   10.4455   -0.0212 H         1 <0>         0.1502
     36 H6          1.9729    7.9497   -0.1844 H         1 <0>         0.1319
     37 H7          1.9779    5.4922   -0.1269 H         1 <0>         0.1326
     38 H8         -2.2345    5.4878    0.6633 H         1 <0>         0.1290
     39 H9         -3.2798    8.0999    0.8110 H         1 <0>         0.4148
     40 H10        -2.2260    3.6958    0.7146 H         1 <0>         0.1273
     41 H11        -2.2127    1.2375    0.7589 H         1 <0>         0.1269
     42 H12        -0.1140    0.0063    0.4000 H         1 <0>         0.1277
     43 H13         1.9835    3.6966   -0.0849 H         1 <0>         0.1363
     44 H14         1.7908   -0.6489    0.9609 H         1 <0>         0.0557
     45 H15         1.4594   -0.6905   -0.7874 H         1 <0>         0.0555
     46 H16         3.1376   -0.7572   -0.1978 H         1 <0>         0.1006
     47 H17        -3.3806   14.5184   -0.1936 H         1 <0>         0.0780
     48 H18        -2.3053   15.4372   -1.2743 H         1 <0>         0.0876
     49 H19        -3.0826   13.9436   -1.8516 H         1 <0>         0.0606
     50 H20         0.9604   15.7924    0.4087 H         1 <0>         0.0679
     51 H21        -0.6046   16.2183   -0.3244 H         1 <0>         0.0659
     52 H22        -1.7429   15.7348    1.8248 H         1 <0>         0.0600
     53 H23        -0.1779   15.3090    2.5579 H         1 <0>         0.0611
     54 O4         -0.8262   17.9013    3.2869 O.co2     1 <0>        -0.7793
@<TRIPOS>BOND
     1    1    2 1
     2    1   32 1
     3    1   33 1
     4    1   34 1
     5    2    7 2
     6    2    3 1
     7    3    4 2
     8    3   28 1
     9    4    5 1
    10    4   27 1
    11    5    6 1
    12    5    7 1
    13    7    8 1
    14    8    9 2
    15    8   35 1
    16    9   17 1
    17    9   10 1
    18   10   15 ar
    19   10   11 ar
    20   11   12 ar
    21   11   36 1
    22   12   13 ar
    23   12   37 1
    24   13   14 ar
    25   13   19 1
    26   14   15 ar
    27   14   38 1
    28   15   16 1
    29   16   17 am
    30   16   39 1
    31   17   18 2
    32   19   24 ar
    33   19   20 ar
    34   20   21 ar
    35   20   40 1
    36   21   22 ar
    37   21   41 1
    38   22   23 ar
    39   22   42 1
    40   23   24 ar
    41   23   25 1
    42   24   43 1
    43   25   26 1
    44   26   44 1
    45   26   45 1
    46   26   46 1
    47   27   47 1
    48   27   48 1
    49   27   49 1
    50   28   29 1
    51   28   50 1
    52   28   51 1
    53   29   30 1
    54   29   52 1
    55   29   53 1
    56   30   31 2
    57   30   54 1
@<TRIPOS>MOLECULE
ZINC03834036
   35    37     0     0     0
SMALL
USER_CHARGES

@<TRIPOS>ATOM
      1 C1          0.0123    7.9040    0.0416 C.3       1 <0>         0.0225
      2 O1          1.2617    7.2105    0.0263 O.3       1 <0>        -0.3015
      3 C2          1.2134    5.8519    0.0198 C.ar      1 <0>         0.1259
      4 C3          0.0047    5.2192    0.0284 C.ar      1 <0>        -0.1739
      5 C4         -0.0451    3.8148    0.0221 C.ar      1 <0>        -0.0867
      6 C5         -1.2729    3.1313    0.0306 C.ar      1 <0>        -0.0511
      7 C6         -1.2466    1.7442    0.0175 C.ar      1 <0>        -0.1000
      8 C7         -0.0126    1.0758    0.0080 C.ar      1 <0>         0.1395
      9 N1          1.1211    1.7303    0.0006 N.ar      1 <0>        -0.4684
     10 C8          1.1605    3.0676    0.0070 C.ar      1 <0>         0.1384
     11 C9          2.3884    3.7500   -0.0016 C.ar      1 <0>        -0.1706
     12 C10         2.4071    5.1147    0.0047 C.ar      1 <0>         0.1399
     13 O2          3.5982    5.7684   -0.0041 O.3       1 <0>        -0.3009
     14 C11         4.7795    4.9644   -0.0198 C.3       1 <0>         0.0215
     15 C12        -2.5139    0.9729    0.0194 C.ar      1 <0>        -0.0426
     16 C13        -3.7379    1.6390    0.0347 C.ar      1 <0>        -0.1110
     17 C14        -4.9138    0.9164    0.0320 C.ar      1 <0>        -0.1158
     18 C15        -4.8789   -0.4664    0.0243 C.ar      1 <0>        -0.1164
     19 C16        -3.6667   -1.1328    0.0139 C.ar      1 <0>        -0.1148
     20 C17        -2.4847   -0.4204    0.0117 C.ar      1 <0>        -0.1095
     21 H1         -0.5463    7.6265    0.9355 H         1 <0>         0.0583
     22 H2          0.1934    8.9788    0.0455 H         1 <0>         0.1054
     23 H3         -0.5631    7.6356   -0.8443 H         1 <0>         0.0583
     24 H4         -0.9091    5.7947    0.0396 H         1 <0>         0.1454
     25 H5         -2.2090    3.6698    0.0424 H         1 <0>         0.1409
     26 H6          0.0021   -0.0041    0.0020 H         1 <0>         0.1616
     27 H7          3.3154    3.1960   -0.0135 H         1 <0>         0.1514
     28 H8          4.7817    4.3394   -0.9128 H         1 <0>         0.0601
     29 H9          5.6580    5.6095   -0.0255 H         1 <0>         0.1058
     30 H10         4.7996    4.3309    0.8670 H         1 <0>         0.0602
     31 H11        -3.7663    2.7185    0.0453 H         1 <0>         0.1240
     32 H12        -5.8630    1.4316    0.0401 H         1 <0>         0.1256
     33 H13        -5.8014   -1.0278    0.0260 H         1 <0>         0.1244
     34 H14        -3.6453   -2.2125    0.0079 H         1 <0>         0.1268
     35 H15        -1.5389   -0.9417    0.0035 H         1 <0>         0.1274
@<TRIPOS>BOND
     1    1    2 1
     2    1   21 1
     3    1   22 1
     4    1   23 1
     5    2    3 1
     6    3   12 ar
     7    3    4 ar
     8    4    5 ar
     9    4   24 1
    10    5   10 ar
    11    5    6 ar
    12    6    7 ar
    13    6   25 1
    14    7    8 ar
    15    7   15 1
    16    8    9 ar
    17    8   26 1
    18    9   10 ar
    19   10   11 ar
    20   11   12 ar
    21   11   27 1
    22   12   13 1
    23   13   14 1
    24   14   28 1
    25   14   29 1
    26   14   30 1
    27   15   20 ar
    28   15   16 ar
    29   16   17 ar
    30   16   31 1
    31   17   18 ar
    32   17   32 1
    33   18   19 ar
    34   18   33 1
    35   19   20 ar
    36   19   34 1
    37   20   35 1
@<TRIPOS>MOLECULE
ZINC03834037
   37    39     0     0     0
SMALL
USER_CHARGES

@<TRIPOS>ATOM
      1 C1          5.9313   -2.0496   -0.0676 C.3       1 <0>         0.0217
      2 O1          4.7162   -2.8016   -0.0597 O.3       1 <0>        -0.2999
      3 C2          3.5541   -2.0963   -0.0445 C.ar      1 <0>         0.1280
      4 C3          3.5919   -0.7326   -0.0371 C.ar      1 <0>        -0.1725
      5 C4          2.3906   -0.0036   -0.0208 C.ar      1 <0>        -0.0920
      6 C5          2.3935    1.4016   -0.0129 C.ar      1 <0>        -0.0310
      7 C6          1.1700    2.0557    0.0019 C.ar      1 <0>        -0.1256
      8 C7         -0.0157    1.3049    0.0092 C.ar      1 <0>         0.1477
      9 N1          0.0021   -0.0041    0.0020 N.ar      1 <0>        -0.4661
     10 C8          1.1500   -0.6911   -0.0127 C.ar      1 <0>         0.1494
     11 C9          1.1461   -2.0959   -0.0207 C.ar      1 <0>        -0.1750
     12 C10         2.3279   -2.7783   -0.0361 C.ar      1 <0>         0.1484
     13 O2          2.3170   -4.1370   -0.0438 O.3       1 <0>        -0.2988
     14 C11         1.0386   -4.7756   -0.0351 C.3       1 <0>         0.0204
     15 C12         1.1155    3.5382    0.0099 C.ar      1 <0>         0.0209
     16 C13         2.2944    4.2814    0.0085 C.ar      1 <0>        -0.1159
     17 C14         2.2377    5.6603    0.0107 C.ar      1 <0>        -0.0460
     18 C15         1.0139    6.3048    0.0254 C.ar      1 <0>        -0.0487
     19 C16        -0.1594    5.5721    0.0326 C.ar      1 <0>        -0.0452
     20 C17        -0.1147    4.1928    0.0247 C.ar      1 <0>        -0.1136
     21 N2          0.9595    7.7840    0.0339 N.pl3     1 <0>         0.0268
     22 O3         -0.1169    8.3538    0.0472 O.2       1 <0>        -0.1571
     23 O4          1.9912    8.4314    0.0275 O.3       1 <0>        -0.1586
     24 H1          5.9612   -1.4167   -0.9546 H         1 <0>         0.0592
     25 H2          5.9787   -1.4263    0.8253 H         1 <0>         0.0592
     26 H3          6.7810   -2.7323   -0.0797 H         1 <0>         0.1069
     27 H4          4.5403   -0.2159   -0.0440 H         1 <0>         0.1478
     28 H5          3.3204    1.9558   -0.0184 H         1 <0>         0.1447
     29 H6         -0.9653    1.8192    0.0165 H         1 <0>         0.1642
     30 H7          0.2100   -2.6346   -0.0151 H         1 <0>         0.1539
     31 H8          0.4754   -4.4731   -0.9180 H         1 <0>         0.0614
     32 H9          1.1727   -5.8573   -0.0427 H         1 <0>         0.1075
     33 H10         0.4926   -4.4834    0.8619 H         1 <0>         0.0614
     34 H11         3.2506    3.7792    0.0016 H         1 <0>         0.1487
     35 H12         3.1507    6.2373    0.0051 H         1 <0>         0.1572
     36 H13        -1.1122    6.0805    0.0441 H         1 <0>         0.1583
     37 H14        -1.0314    3.6217    0.0304 H         1 <0>         0.1523
@<TRIPOS>BOND
     1    1    2 1
     2    1   24 1
     3    1   25 1
     4    1   26 1
     5    2    3 1
     6    3   12 ar
     7    3    4 ar
     8    4    5 ar
     9    4   27 1
    10    5   10 ar
    11    5    6 ar
    12    6    7 ar
    13    6   28 1
    14    7    8 ar
    15    7   15 1
    16    8    9 ar
    17    8   29 1
    18    9   10 ar
    19   10   11 ar
    20   11   12 ar
    21   11   30 1
    22   12   13 1
    23   13   14 1
    24   14   31 1
    25   14   32 1
    26   14   33 1
    27   15   20 ar
    28   15   16 ar
    29   16   17 ar
    30   16   34 1
    31   17   18 ar
    32   17   35 1
    33   18   19 ar
    34   18   21 1
    35   19   20 ar
    36   19   36 1
    37   20   37 1
    38   21   22 2
    39   21   23 1
@<TRIPOS>MOLECULE
ZINC03834038
   37    39     0     0     0
SMALL
USER_CHARGES

@<TRIPOS>ATOM
      1 C1          1.6122    2.6979    2.5262 C.3       1 <0>        -0.0909
      2 C2          1.1543    1.3404    2.9935 C.2       1 <0>        -0.0837
      3 C3          0.2235    0.5150    2.3600 C.2       1 <0>        -0.1600
      4 C4          0.0977   -0.6166    3.0972 C.2       1 <0>         0.0411
      5 N1          0.9132   -0.5317    4.1783 N.pl3     1 <0>        -0.5149
      6 H1          1.0130   -1.2079    4.8665 H         1 <0>         0.4172
      7 C5          1.5754    0.6765    4.1355 C.2       1 <0>        -0.0340
      8 C6          2.5138    1.1477    5.0768 C.2       1 <0>         0.1034
      9 C7          2.3801    0.8156    6.4114 C.2       1 <0>        -0.2314
     10 C8          3.3366    1.0884    7.5070 C.ar      1 <0>        -0.0839
     11 C9          4.5786    1.7134    7.5553 C.ar      1 <0>        -0.0725
     12 C10         5.2460    1.8172    8.7588 C.ar      1 <0>        -0.1391
     13 C11         4.6807    1.3009    9.9132 C.ar      1 <0>        -0.0936
     14 C12         3.4493    0.6791    9.8760 C.ar      1 <0>        -0.1371
     15 C13         2.7614    0.5648    8.6728 C.ar      1 <0>         0.1341
     16 N2          1.5320   -0.0017    8.3600 N.am      1 <0>        -0.6542
     17 C14         1.2551    0.1212    7.0507 C.2       1 <0>         0.5553
     18 O1          0.2484   -0.2765    6.4915 O.2       1 <0>        -0.5124
     19 C15        -0.5079    0.8240    1.0791 C.3       1 <0>        -0.0305
     20 C16         0.3649    0.4303   -0.1143 C.3       1 <0>        -0.1477
     21 C17        -0.3664    0.7393   -1.3952 C.2       1 <0>         0.4576
     22 O2         -1.4723    1.2247   -1.3574 O.co2     1 <0>        -0.6424
     23 H2          0.9658    3.4657    2.9515 H         1 <0>         0.0674
     24 H3          2.6389    2.8667    2.8508 H         1 <0>         0.0596
     25 H4          1.5630    2.7433    1.4383 H         1 <0>         0.0758
     26 H5         -0.5472   -1.4503    2.8618 H         1 <0>         0.1677
     27 H6          3.3369    1.7683    4.7546 H         1 <0>         0.1500
     28 H7          5.0188    2.1154    6.6547 H         1 <0>         0.1281
     29 H8          6.2103    2.3016    8.8006 H         1 <0>         0.1278
     30 H9          5.2090    1.3855   10.8514 H         1 <0>         0.1280
     31 H10         3.0189    0.2809   10.7830 H         1 <0>         0.1240
     32 H11         0.9463   -0.4280    9.0051 H         1 <0>         0.4142
     33 H12        -0.7258    1.8910    1.0335 H         1 <0>         0.0683
     34 H13        -1.4407    0.2610    1.0484 H         1 <0>         0.0655
     35 H14         0.5829   -0.6368   -0.0687 H         1 <0>         0.0606
     36 H15         1.2978    0.9932   -0.0836 H         1 <0>         0.0623
     37 O3          0.2107    0.4753   -2.5780 O.co2     1 <0>        -0.7796
@<TRIPOS>BOND
     1    1    2 1
     2    1   23 1
     3    1   24 1
     4    1   25 1
     5    2    7 2
     6    2    3 1
     7    3    4 2
     8    3   19 1
     9    4    5 1
    10    4   26 1
    11    5    6 1
    12    5    7 1
    13    7    8 1
    14    8    9 2
    15    8   27 1
    16    9   17 1
    17    9   10 1
    18   10   15 ar
    19   10   11 ar
    20   11   12 ar
    21   11   28 1
    22   12   13 ar
    23   12   29 1
    24   13   14 ar
    25   13   30 1
    26   14   15 ar
    27   14   31 1
    28   15   16 1
    29   16   17 am
    30   16   32 1
    31   17   18 2
    32   19   20 1
    33   19   33 1
    34   19   34 1
    35   20   21 1
    36   20   35 1
    37   20   36 1
    38   21   22 2
    39   21   37 1
@<TRIPOS>MOLECULE
ZINC03834039
   41    43     0     0     0
SMALL
USER_CHARGES

@<TRIPOS>ATOM
      1 C1          2.5733    1.6090    1.9940 C.3       1 <0>        -0.0910
      2 C2          1.4182    1.1308    2.8355 C.2       1 <0>        -0.0869
      3 C3          0.1391    0.8039    2.3806 C.2       1 <0>        -0.1591
      4 C4         -0.5983    0.4147    3.4500 C.2       1 <0>         0.0375
      5 N1          0.1698    0.4900    4.5664 N.pl3     1 <0>        -0.5159
      6 H1         -0.1161    0.2678    5.4662 H         1 <0>         0.4164
      7 C5          1.4238    0.9358    4.2079 C.2       1 <0>        -0.0318
      8 C6          2.5144    1.1483    5.0770 C.2       1 <0>         0.0940
      9 C7          2.6890    0.3330    6.1782 C.2       1 <0>        -0.2179
     10 C8          3.6770    0.4924    7.2688 C.ar      1 <0>        -0.1211
     11 C9          4.6702    1.4328    7.5247 C.ar      1 <0>        -0.0301
     12 C10         5.4530    1.3128    8.6539 C.ar      1 <0>        -0.2260
     13 C11         5.2489    0.2556    9.5330 C.ar      1 <0>         0.1556
     14 C12         4.2570   -0.6796    9.2898 C.ar      1 <0>        -0.1729
     15 C13         3.4640   -0.5743    8.1530 C.ar      1 <0>         0.1783
     16 N2          2.4298   -1.3670    7.6707 N.am      1 <0>        -0.6522
     17 C14         1.9386   -0.8832    6.5173 C.2       1 <0>         0.5560
     18 O1          1.0303   -1.3686    5.8666 O.2       1 <0>        -0.5056
     19 O2          6.0235    0.1436   10.6442 O.3       1 <0>        -0.3163
     20 C15         7.0231    1.1454   10.8419 C.3       1 <0>         0.0274
     21 C16        -0.3362    0.8666    0.9519 C.3       1 <0>        -0.0297
     22 C17         0.0410   -0.4295    0.2316 C.3       1 <0>        -0.1484
     23 C18        -0.4343   -0.3668   -1.1971 C.2       1 <0>         0.4582
     24 O3         -1.0151    0.6138   -1.5981 O.co2     1 <0>        -0.6431
     25 H2          2.5526    2.6971    1.9333 H         1 <0>         0.0676
     26 H3          3.5109    1.2881    2.4479 H         1 <0>         0.0587
     27 H4          2.4918    1.1876    0.9920 H         1 <0>         0.0749
     28 H5         -1.6297    0.0960    3.4184 H         1 <0>         0.1669
     29 H6          3.2129    1.9484    4.8813 H         1 <0>         0.1492
     30 H7          4.8279    2.2538    6.8410 H         1 <0>         0.1323
     31 H8          6.2247    2.0410    8.8554 H         1 <0>         0.1339
     32 H9          4.1075   -1.4986    9.9777 H         1 <0>         0.1337
     33 H10         2.1041   -2.1680    8.1104 H         1 <0>         0.4161
     34 H11         7.5683    0.9379   11.7627 H         1 <0>         0.1001
     35 H12         7.7157    1.1388   10.0003 H         1 <0>         0.0578
     36 H13         6.5478    2.1237   10.9137 H         1 <0>         0.0574
     37 H14         0.1341    1.7117    0.4492 H         1 <0>         0.0681
     38 H15        -1.4190    0.9901    0.9343 H         1 <0>         0.0653
     39 H16        -0.4293   -1.2746    0.7343 H         1 <0>         0.0607
     40 H17         1.1239   -0.5530    0.2492 H         1 <0>         0.0617
     41 O4         -0.2123   -1.4005   -2.0242 O.co2     1 <0>        -0.7795
@<TRIPOS>BOND
     1    1    2 1
     2    1   25 1
     3    1   26 1
     4    1   27 1
     5    2    7 2
     6    2    3 1
     7    3    4 2
     8    3   21 1
     9    4    5 1
    10    4   28 1
    11    5    6 1
    12    5    7 1
    13    7    8 1
    14    8    9 2
    15    8   29 1
    16    9   17 1
    17    9   10 1
    18   10   15 ar
    19   10   11 ar
    20   11   12 ar
    21   11   30 1
    22   12   13 ar
    23   12   31 1
    24   13   14 ar
    25   13   19 1
    26   14   15 ar
    27   14   32 1
    28   15   16 1
    29   16   17 am
    30   16   33 1
    31   17   18 2
    32   19   20 1
    33   20   34 1
    34   20   35 1
    35   20   36 1
    36   21   22 1
    37   21   37 1
    38   21   38 1
    39   22   23 1
    40   22   39 1
    41   22   40 1
    42   23   24 2
    43   23   41 1
@<TRIPOS>MOLECULE
ZINC03834040
   35    37     0     0     0
SMALL
USER_CHARGES

@<TRIPOS>ATOM
      1 C1          8.4592    3.0130   -0.0671 C.3       1 <0>         0.0220
      2 O1          8.4725    1.5841   -0.0750 O.3       1 <0>        -0.3008
      3 C2          7.2670    0.9556   -0.0660 C.ar      1 <0>         0.1271
      4 C3          6.1204    1.6946   -0.0496 C.ar      1 <0>        -0.1734
      5 C4          4.8743    1.0449   -0.0398 C.ar      1 <0>        -0.0883
      6 C5          3.6741    1.7756   -0.0293 C.ar      1 <0>        -0.0425
      7 C6          2.4806    1.0681   -0.0159 C.ar      1 <0>        -0.1081
      8 C7          2.5082   -0.3351   -0.0236 C.ar      1 <0>         0.1437
      9 N1          3.6369   -0.9982   -0.0389 N.ar      1 <0>        -0.4666
     10 C8          4.8194   -0.3725   -0.0474 C.ar      1 <0>         0.1438
     11 C9          6.0188   -1.1037   -0.0642 C.ar      1 <0>        -0.1727
     12 C10         7.2149   -0.4465   -0.0731 C.ar      1 <0>         0.1440
     13 O2          8.3712   -1.1599   -0.0894 O.3       1 <0>        -0.2999
     14 C11         8.2548   -2.5841   -0.0964 C.3       1 <0>         0.0210
     15 C12         1.1846    1.7896    0.0004 C.ar      1 <0>        -0.0175
     16 C13        -0.0126    1.0758    0.0080 C.ar      1 <0>        -0.0915
     17 C14        -1.2165    1.7500    0.0173 C.ar      1 <0>        -0.1171
     18 C15        -1.2376    3.1348    0.0297 C.ar      1 <0>         0.0690
     19 C16        -0.0490    3.8505    0.0222 C.ar      1 <0>         0.0756
     20 C17         1.1607    3.1828    0.0076 C.ar      1 <0>        -0.1216
     21 F1         -0.0744    5.2013    0.0297 F         1 <0>        -0.1251
     22 F2         -2.4187    3.7905    0.0441 F         1 <0>        -0.1253
     23 H1          7.9512    3.3667    0.8302 H         1 <0>         0.0589
     24 H2          9.4834    3.3859   -0.0756 H         1 <0>         0.1060
     25 H3          7.9328    3.3764   -0.9497 H         1 <0>         0.0589
     26 H4          6.1700    2.7735   -0.0439 H         1 <0>         0.1466
     27 H5          3.6804    2.8555   -0.0281 H         1 <0>         0.1423
     28 H6          1.5763   -0.8808   -0.0173 H         1 <0>         0.1638
     29 H7          5.9944   -2.1834   -0.0706 H         1 <0>         0.1526
     30 H8          7.7037   -2.8992   -0.9825 H         1 <0>         0.0608
     31 H9          9.2494   -3.0299   -0.1095 H         1 <0>         0.1064
     32 H10         7.7225   -2.9096    0.7974 H         1 <0>         0.0608
     33 H11         0.0021   -0.0041    0.0020 H         1 <0>         0.1468
     34 H12        -2.1440    1.1968    0.0187 H         1 <0>         0.1522
     35 H13         2.0860    3.7398    0.0021 H         1 <0>         0.1480
@<TRIPOS>BOND
     1    1    2 1
     2    1   23 1
     3    1   24 1
     4    1   25 1
     5    2    3 1
     6    3   12 ar
     7    3    4 ar
     8    4    5 ar
     9    4   26 1
    10    5   10 ar
    11    5    6 ar
    12    6    7 ar
    13    6   27 1
    14    7    8 ar
    15    7   15 1
    16    8    9 ar
    17    8   28 1
    18    9   10 ar
    19   10   11 ar
    20   11   12 ar
    21   11   29 1
    22   12   13 1
    23   13   14 1
    24   14   30 1
    25   14   31 1
    26   14   32 1
    27   15   20 ar
    28   15   16 ar
    29   16   17 ar
    30   16   33 1
    31   17   18 ar
    32   17   34 1
    33   18   19 ar
    34   18   22 1
    35   19   20 ar
    36   19   21 1
    37   20   35 1
@<TRIPOS>MOLECULE
ZINC03834041
   47    50     0     0     0
SMALL
USER_CHARGES

@<TRIPOS>ATOM
      1 C1          2.5731    1.6084    1.9936 C.3       1 <0>        -0.0918
      2 C2          1.4180    1.1304    2.8352 C.2       1 <0>        -0.0834
      3 C3          0.1392    0.8038    2.3805 C.2       1 <0>        -0.1597
      4 C4         -0.5984    0.4145    3.4502 C.2       1 <0>         0.0407
      5 N1          0.1693    0.4897    4.5664 N.pl3     1 <0>        -0.5150
      6 H1         -0.1167    0.2673    5.4662 H         1 <0>         0.4168
      7 C5          1.4236    0.9354    4.2080 C.2       1 <0>        -0.0351
      8 C6          2.5136    1.1476    5.0768 C.2       1 <0>         0.1032
      9 C7          2.6882    0.3316    6.1788 C.2       1 <0>        -0.2284
     10 C8          3.6757    0.4911    7.2685 C.ar      1 <0>        -0.0800
     11 C9          4.6608    1.4407    7.5292 C.ar      1 <0>        -0.0690
     12 C10         5.4419    1.3270    8.6575 C.ar      1 <0>        -0.1273
     13 C11         5.2411    0.2646    9.5411 C.ar      1 <0>        -0.0215
     14 C12         4.2544   -0.6835    9.2885 C.ar      1 <0>        -0.1272
     15 C13         3.4626   -0.5763    8.1535 C.ar      1 <0>         0.1403
     16 N2          2.4280   -1.3691    7.6708 N.am      1 <0>        -0.6540
     17 C14         1.9375   -0.8845    6.5174 C.2       1 <0>         0.5553
     18 O1          1.0293   -1.3694    5.8662 O.2       1 <0>        -0.5083
     19 C15         6.0845    0.1458   10.7552 C.ar      1 <0>        -0.0416
     20 C16         5.8861   -0.9092   11.6443 C.ar      1 <0>        -0.1114
     21 C17         6.6774   -1.0177   12.7697 C.ar      1 <0>        -0.1181
     22 C18         7.6583   -0.0755   13.0222 C.ar      1 <0>        -0.1203
     23 C19         7.8562    0.9765   12.1460 C.ar      1 <0>        -0.1179
     24 C20         7.0748    1.0919   11.0144 C.ar      1 <0>        -0.1089
     25 C21        -0.3362    0.8664    0.9518 C.3       1 <0>        -0.0298
     26 C22         0.0408   -0.4297    0.2316 C.3       1 <0>        -0.1485
     27 C23        -0.4345   -0.3671   -1.1971 C.2       1 <0>         0.4582
     28 O2         -1.0153    0.6136   -1.5981 O.co2     1 <0>        -0.6431
     29 H2          2.5526    2.6965    1.9328 H         1 <0>         0.0685
     30 H3          3.5107    1.2874    2.4475 H         1 <0>         0.0591
     31 H4          2.4915    1.1869    0.9917 H         1 <0>         0.0755
     32 H5         -1.6300    0.0963    3.4186 H         1 <0>         0.1676
     33 H6          3.2122    1.9477    4.8812 H         1 <0>         0.1502
     34 H7          4.8152    2.2617    6.8447 H         1 <0>         0.1315
     35 H8          6.2099    2.0592    8.8588 H         1 <0>         0.1314
     36 H9          4.1048   -1.5031    9.9757 H         1 <0>         0.1278
     37 H10         2.1015   -2.1697    8.1105 H         1 <0>         0.4150
     38 H11         5.1173   -1.6426   11.4507 H         1 <0>         0.1247
     39 H12         6.5277   -1.8373   13.4569 H         1 <0>         0.1234
     40 H13         8.2723   -0.1619   13.9065 H         1 <0>         0.1218
     41 H14         8.6236    1.7091   12.3481 H         1 <0>         0.1243
     42 H15         7.2304    1.9134   10.3309 H         1 <0>         0.1277
     43 H16         0.1342    1.7115    0.4491 H         1 <0>         0.0684
     44 H17        -1.4190    0.9901    0.9343 H         1 <0>         0.0657
     45 H18        -0.4295   -1.2748    0.7343 H         1 <0>         0.0607
     46 H19         1.1237   -0.5534    0.2491 H         1 <0>         0.0617
     47 O3         -0.2128   -1.4008   -2.0242 O.co2     1 <0>        -0.7792
@<TRIPOS>BOND
     1    1    2 1
     2    1   29 1
     3    1   30 1
     4    1   31 1
     5    2    7 2
     6    2    3 1
     7    3    4 2
     8    3   25 1
     9    4    5 1
    10    4   32 1
    11    5    6 1
    12    5    7 1
    13    7    8 1
    14    8    9 2
    15    8   33 1
    16    9   17 1
    17    9   10 1
    18   10   15 ar
    19   10   11 ar
    20   11   12 ar
    21   11   34 1
    22   12   13 ar
    23   12   35 1
    24   13   14 ar
    25   13   19 1
    26   14   15 ar
    27   14   36 1
    28   15   16 1
    29   16   17 am
    30   16   37 1
    31   17   18 2
    32   19   24 ar
    33   19   20 ar
    34   20   21 ar
    35   20   38 1
    36   21   22 ar
    37   21   39 1
    38   22   23 ar
    39   22   40 1
    40   23   24 ar
    41   23   41 1
    42   24   42 1
    43   25   26 1
    44   25   43 1
    45   25   44 1
    46   26   27 1
    47   26   45 1
    48   26   46 1
    49   27   28 2
    50   27   47 1
@<TRIPOS>MOLECULE
ZINC03834042
   39    42     0     0     0
SMALL
USER_CHARGES

@<TRIPOS>ATOM
      1 C1         -7.2178   -3.0872   -3.4731 C.3       1 <0>         0.0231
      2 O1         -7.7873   -2.1969   -2.5113 O.3       1 <0>        -0.3024
      3 C2         -6.9302   -1.5914   -1.6471 C.ar      1 <0>         0.1243
      4 C3         -5.5932   -1.8506   -1.7295 C.ar      1 <0>        -0.1744
      5 C4         -4.7071   -1.2251   -0.8359 C.ar      1 <0>        -0.0854
      6 C5         -3.3245   -1.4699   -0.8928 C.ar      1 <0>        -0.0565
      7 C6         -2.5089   -0.8175    0.0216 C.ar      1 <0>        -0.0559
      8 C7         -3.0830    0.0500    0.9648 C.ar      1 <0>         0.1428
      9 N1         -4.3732    0.2683    0.9983 N.ar      1 <0>        -0.4703
     10 C8         -5.2099   -0.3305    0.1432 C.ar      1 <0>         0.1353
     11 C9         -6.5921   -0.0851    0.2007 C.ar      1 <0>        -0.1691
     12 C10        -7.4295   -0.7068   -0.6795 C.ar      1 <0>         0.1363
     13 O2         -8.7654   -0.4653   -0.6180 O.3       1 <0>        -0.3021
     14 C11        -9.2146    0.4445    0.3881 C.3       1 <0>         0.0220
     15 C12        -1.0436   -1.0397    0.0064 C.2       1 <0>        -0.1406
     16 C13        -0.4067   -2.2361   -0.0061 C.2       1 <0>         0.0764
     17 N2          0.9446   -2.0394   -0.0179 N.pl3     1 <0>        -0.5904
     18 H1          1.6086   -2.7465   -0.0280 H         1 <0>         0.4191
     19 C14         1.2283   -0.6908   -0.0134 C.ar      1 <0>         0.0950
     20 C15         0.0021   -0.0041    0.0020 C.ar      1 <0>        -0.0904
     21 C16        -0.0168    1.3897    0.0097 C.ar      1 <0>        -0.0724
     22 C17         1.1703    2.0877    0.0021 C.ar      1 <0>        -0.1414
     23 C18         2.3815    1.4104   -0.0131 C.ar      1 <0>        -0.0970
     24 C19         2.4160    0.0332   -0.0208 C.ar      1 <0>        -0.1291
     25 H2         -6.5088   -2.5428   -4.0970 H         1 <0>         0.0579
     26 H3         -6.7011   -3.8968   -2.9576 H         1 <0>         0.0577
     27 H4         -8.0089   -3.5010   -4.0984 H         1 <0>         0.1045
     28 H5         -5.2177   -2.5333   -2.4774 H         1 <0>         0.1440
     29 H6         -2.9090   -2.1455   -1.6257 H         1 <0>         0.1374
     30 H7         -2.4446    0.5519    1.6768 H         1 <0>         0.1586
     31 H8         -6.9911    0.5939    0.9397 H         1 <0>         0.1501
     32 H9         -8.9405    0.0629    1.3716 H         1 <0>         0.0596
     33 H10        -8.7480    1.4173    0.2328 H         1 <0>         0.0597
     34 H11       -10.2981    0.5474    0.3274 H         1 <0>         0.1049
     35 H12        -0.8944   -3.1997   -0.0063 H         1 <0>         0.1738
     36 H13        -0.9578    1.9197    0.0170 H         1 <0>         0.1223
     37 H14         1.1587    3.1676    0.0080 H         1 <0>         0.1248
     38 H15         3.3061    1.9685   -0.0193 H         1 <0>         0.1268
     39 H16         3.3642   -0.4837   -0.0330 H         1 <0>         0.1210
@<TRIPOS>BOND
     1    1    2 1
     2    1   25 1
     3    1   26 1
     4    1   27 1
     5    2    3 1
     6    3   12 ar
     7    3    4 ar
     8    4    5 ar
     9    4   28 1
    10    5   10 ar
    11    5    6 ar
    12    6    7 ar
    13    6   29 1
    14    7    8 ar
    15    7   15 1
    16    8    9 ar
    17    8   30 1
    18    9   10 ar
    19   10   11 ar
    20   11   12 ar
    21   11   31 1
    22   12   13 1
    23   13   14 1
    24   14   32 1
    25   14   33 1
    26   14   34 1
    27   15   20 1
    28   15   16 2
    29   16   17 1
    30   16   35 1
    31   17   18 1
    32   17   19 1
    33   19   24 ar
    34   19   20 ar
    35   20   21 ar
    36   21   22 ar
    37   21   36 1
    38   22   23 ar
    39   22   37 1
    40   23   24 ar
    41   23   38 1
    42   24   39 1
@<TRIPOS>MOLECULE
ZINC03834043
   39    41     0     0     0
SMALL
USER_CHARGES

@<TRIPOS>ATOM
      1 C1          5.9736    3.3073   -0.0384 C.3       1 <0>         0.0219
      2 O1          5.9781    1.8784   -0.0463 O.3       1 <0>        -0.3006
      3 C2          4.7688    1.2573   -0.0377 C.ar      1 <0>         0.1271
      4 C3          3.6267    2.0035   -0.0218 C.ar      1 <0>        -0.1725
      5 C4          2.3766    1.3614   -0.0133 C.ar      1 <0>        -0.0899
      6 C5          1.1810    2.0995    0.0021 C.ar      1 <0>        -0.0363
      7 C6         -0.0170    1.3994    0.0097 C.ar      1 <0>        -0.1124
      8 C7          0.0021   -0.0041    0.0020 C.ar      1 <0>         0.1462
      9 N1          1.1266   -0.6740   -0.0124 N.ar      1 <0>        -0.4661
     10 C8          2.3129   -0.0556   -0.0204 C.ar      1 <0>         0.1464
     11 C9          3.5079   -0.7942   -0.0364 C.ar      1 <0>        -0.1735
     12 C10         4.7080   -0.1444   -0.0448 C.ar      1 <0>         0.1456
     13 O2          5.8599   -0.8649   -0.0607 O.3       1 <0>        -0.2996
     14 C11         5.7347   -2.2884   -0.0677 C.3       1 <0>         0.0208
     15 C12        -1.3084    2.1288    0.0198 C.ar      1 <0>         0.0198
     16 C13        -1.3228    3.5226    0.0333 C.ar      1 <0>        -0.1481
     17 C14        -2.5268    4.1997    0.0388 C.ar      1 <0>         0.1218
     18 C15        -3.7228    3.4926    0.0402 C.ar      1 <0>         0.0257
     19 C16        -3.7110    2.1033    0.0316 C.ar      1 <0>         0.1230
     20 C17        -2.5096    1.4217    0.0217 C.ar      1 <0>        -0.1461
     21 F1         -4.8755    1.4184    0.0334 F         1 <0>        -0.1181
     22 O3         -4.9068    4.1613    0.0503 O.3       1 <0>        -0.3191
     23 C18        -5.4651    4.4726    1.3284 C.3       1 <0>         0.0301
     24 F2         -2.5414    5.5506    0.0480 F         1 <0>        -0.1191
     25 H1          7.0001    3.6739   -0.0466 H         1 <0>         0.1061
     26 H2          5.4499    3.6739   -0.9212 H         1 <0>         0.0591
     27 H3          5.4675    3.6641    0.8586 H         1 <0>         0.0589
     28 H4          3.6830    3.0820   -0.0157 H         1 <0>         0.1472
     29 H5          1.1941    3.1794    0.0074 H         1 <0>         0.1441
     30 H6         -0.9332   -0.5440    0.0077 H         1 <0>         0.1638
     31 H7          3.4768   -1.8737   -0.0424 H         1 <0>         0.1530
     32 H8          5.2001   -2.6105    0.8259 H         1 <0>         0.0610
     33 H9          5.1820   -2.6002   -0.9539 H         1 <0>         0.0611
     34 H10         6.7265   -2.7403   -0.0804 H         1 <0>         0.1066
     35 H11        -0.3934    4.0726    0.0364 H         1 <0>         0.1506
     36 H12        -2.5009    0.3417    0.0158 H         1 <0>         0.1541
     37 H13        -5.6449    3.5503    1.8807 H         1 <0>         0.0520
     38 H14        -4.7695    5.1001    1.8857 H         1 <0>         0.0515
     39 H15        -6.4067    5.0049    1.1937 H         1 <0>         0.1039
@<TRIPOS>BOND
     1    1    2 1
     2    1   25 1
     3    1   26 1
     4    1   27 1
     5    2    3 1
     6    3   12 ar
     7    3    4 ar
     8    4    5 ar
     9    4   28 1
    10    5   10 ar
    11    5    6 ar
    12    6    7 ar
    13    6   29 1
    14    7    8 ar
    15    7   15 1
    16    8    9 ar
    17    8   30 1
    18    9   10 ar
    19   10   11 ar
    20   11   12 ar
    21   11   31 1
    22   12   13 1
    23   13   14 1
    24   14   32 1
    25   14   33 1
    26   14   34 1
    27   15   20 ar
    28   15   16 ar
    29   16   17 ar
    30   16   35 1
    31   17   18 ar
    32   17   24 1
    33   18   19 ar
    34   18   22 1
    35   19   20 ar
    36   19   21 1
    37   20   36 1
    38   22   23 1
    39   23   37 1
    40   23   38 1
    41   23   39 1
@<TRIPOS>MOLECULE
ZINC03834044
   38    40     0     0     0
SMALL
USER_CHARGES

@<TRIPOS>ATOM
      1 C1         -2.8411    2.7691    4.5397 C.3       1 <0>         0.0230
      2 O1         -2.0675    2.3726    3.4055 O.3       1 <0>        -0.3022
      3 C2         -2.6826    1.5851    2.4838 C.ar      1 <0>         0.1245
      4 C3         -3.9819    1.2139    2.6724 C.ar      1 <0>        -0.1745
      5 C4         -4.6175    0.4007    1.7199 C.ar      1 <0>        -0.0873
      6 C5         -5.9558   -0.0026    1.8806 C.ar      1 <0>        -0.0601
      7 C6         -6.5115   -0.7942    0.9153 C.ar      1 <0>        -0.1276
      8 C7         -5.7549   -1.1790   -0.1886 C.ar      1 <0>         0.1354
      9 N1         -4.5076   -0.8019   -0.3356 N.ar      1 <0>        -0.4698
     10 C8         -3.9040   -0.0269    0.5717 C.ar      1 <0>         0.1329
     11 C9         -2.5689    0.3773    0.4040 C.ar      1 <0>        -0.1693
     12 C10        -1.9747    1.1631    1.3482 C.ar      1 <0>         0.1363
     13 O2         -0.6816    1.5467    1.1837 O.3       1 <0>        -0.3018
     14 C11        -0.0127    1.0858    0.0080 C.3       1 <0>         0.0220
     15 C12        -7.9420   -1.2500    1.0451 C.3       1 <0>        -0.0495
     16 C13        -8.0090   -2.7912    1.0295 C.3       1 <0>        -0.1188
     17 C14        -9.3028   -3.1063    0.2369 C.3       1 <0>        -0.1260
     18 C15        -9.2997   -2.0221   -0.8692 C.3       1 <0>        -0.1264
     19 C16        -8.7625   -0.7611   -0.1613 C.3       1 <0>        -0.1192
     20 H1         -3.7117    3.3339    4.2062 H         1 <0>         0.0579
     21 H2         -3.1692    1.8833    5.0835 H         1 <0>         0.0579
     22 H3         -2.2325    3.3928    5.1945 H         1 <0>         0.1049
     23 H4         -4.5188    1.5439    3.5495 H         1 <0>         0.1442
     24 H5         -6.5283    0.3053    2.7430 H         1 <0>         0.1366
     25 H6         -6.2073   -1.8048   -0.9437 H         1 <0>         0.1568
     26 H7         -2.0134    0.0638   -0.4675 H         1 <0>         0.1500
     27 H8          0.0021   -0.0041    0.0020 H         1 <0>         0.0596
     28 H9          1.0099    1.4631    0.0003 H         1 <0>         0.1053
     29 H10        -0.5399    1.4469   -0.8751 H         1 <0>         0.0595
     30 H11        -8.3732   -0.8669    1.9700 H         1 <0>         0.0821
     31 H12        -7.1392   -3.2057    0.5199 H         1 <0>         0.0701
     32 H13        -8.0786   -3.1803    2.0452 H         1 <0>         0.0683
     33 H14       -10.1805   -3.0045    0.8752 H         1 <0>         0.0681
     34 H15        -9.2551   -4.1039   -0.1999 H         1 <0>         0.0685
     35 H16       -10.3108   -1.8508   -1.2384 H         1 <0>         0.0671
     36 H17        -8.6384   -2.3120   -1.6857 H         1 <0>         0.0668
     37 H18        -9.5925   -0.1413    0.1782 H         1 <0>         0.0679
     38 H19        -8.1262   -0.1933   -0.8402 H         1 <0>         0.0670
@<TRIPOS>BOND
     1    1    2 1
     2    1   20 1
     3    1   21 1
     4    1   22 1
     5    2    3 1
     6    3   12 ar
     7    3    4 ar
     8    4    5 ar
     9    4   23 1
    10    5   10 ar
    11    5    6 ar
    12    6    7 ar
    13    6   24 1
    14    7    8 ar
    15    7   15 1
    16    8    9 ar
    17    8   25 1
    18    9   10 ar
    19   10   11 ar
    20   11   12 ar
    21   11   26 1
    22   12   13 1
    23   13   14 1
    24   14   27 1
    25   14   28 1
    26   14   29 1
    27   15   19 1
    28   15   16 1
    29   15   30 1
    30   16   17 1
    31   16   31 1
    32   16   32 1
    33   17   18 1
    34   17   33 1
    35   17   34 1
    36   18   19 1
    37   18   35 1
    38   18   36 1
    39   19   37 1
    40   19   38 1
@<TRIPOS>MOLECULE
ZINC03834045
   47    49     0     0     0
SMALL
USER_CHARGES

@<TRIPOS>ATOM
      1 C1          4.7852   -0.1215   -0.0445 C.3       1 <0>         0.0230
      2 O1          4.7864    1.3075   -0.0371 O.3       1 <0>        -0.3023
      3 C2          3.5757    1.9256   -0.0222 C.ar      1 <0>         0.1246
      4 C3          2.4354    1.1764   -0.0149 C.ar      1 <0>        -0.1747
      5 C4          1.1846    1.8149    0.0005 C.ar      1 <0>        -0.0876
      6 C5         -0.0126    1.0758    0.0080 C.ar      1 <0>        -0.0589
      7 C6         -1.1943    1.7617    0.0172 C.ar      1 <0>        -0.1351
      8 C7         -1.1896    3.1542    0.0285 C.ar      1 <0>         0.1330
      9 N1         -0.0723    3.8405    0.0220 N.ar      1 <0>        -0.4703
     10 C8          1.1179    3.2312    0.0083 C.ar      1 <0>         0.1335
     11 C9          2.3105    3.9740    0.0011 C.ar      1 <0>        -0.1695
     12 C10         3.5119    3.3272   -0.0139 C.ar      1 <0>         0.1364
     13 O2          4.6623    4.0504   -0.0204 O.3       1 <0>        -0.3019
     14 C11         4.5339    5.4736   -0.0115 C.3       1 <0>         0.0220
     15 C12        -2.5015    1.0119    0.0192 C.3       1 <0>        -0.0774
     16 C13        -2.9372    0.7504    1.4624 C.3       1 <0>        -0.1099
     17 C14        -4.2643   -0.0109    1.4645 C.3       1 <0>        -0.0866
     18 C15        -5.3600    0.8726    0.8647 C.3       1 <0>        -0.1169
     19 C16        -6.6872    0.1113    0.8668 C.3       1 <0>        -0.1209
     20 C17        -7.0603   -0.2592    2.3036 C.3       1 <0>        -0.1211
     21 C18        -5.9646   -1.1427    2.9034 C.3       1 <0>        -0.1204
     22 C19        -4.6374   -0.3814    2.9013 C.3       1 <0>        -0.1150
     23 H1          4.2798   -0.4890    0.8486 H         1 <0>         0.0578
     24 H2          4.2625   -0.4799   -0.9313 H         1 <0>         0.0579
     25 H3          5.8125   -0.4856   -0.0563 H         1 <0>         0.1049
     26 H4          2.4944    0.0980   -0.0214 H         1 <0>         0.1441
     27 H5          0.0021   -0.0041    0.0020 H         1 <0>         0.1362
     28 H6         -2.1313    3.6830    0.0396 H         1 <0>         0.1573
     29 H7          2.2764    5.0534    0.0069 H         1 <0>         0.1499
     30 H8          3.9814    5.7942   -0.8947 H         1 <0>         0.0596
     31 H9          3.9977    5.7844    0.8852 H         1 <0>         0.0595
     32 H10         5.5248    5.9279   -0.0180 H         1 <0>         0.1053
     33 H11        -3.2619    1.6059   -0.4879 H         1 <0>         0.0796
     34 H12        -2.3763    0.0619   -0.5003 H         1 <0>         0.0743
     35 H13        -2.1768    0.1564    1.9695 H         1 <0>         0.0632
     36 H14        -3.0624    1.7004    1.9819 H         1 <0>         0.0651
     37 H15        -4.1634   -0.9187    0.8697 H         1 <0>         0.0703
     38 H16        -5.4609    1.7804    1.4595 H         1 <0>         0.0622
     39 H17        -5.0942    1.1366   -0.1589 H         1 <0>         0.0641
     40 H18        -6.5863   -0.7965    0.2720 H         1 <0>         0.0606
     41 H19        -7.4678    0.7408    0.4395 H         1 <0>         0.0607
     42 H20        -8.0058   -0.8016    2.3051 H         1 <0>         0.0597
     43 H21        -7.1612    0.6486    2.8984 H         1 <0>         0.0608
     44 H22        -5.8637   -2.0505    2.3086 H         1 <0>         0.0606
     45 H23        -6.2304   -1.4067    3.9270 H         1 <0>         0.0604
     46 H24        -3.8568   -1.0109    3.3286 H         1 <0>         0.0604
     47 H25        -4.7384    0.5264    3.4961 H         1 <0>         0.0617
@<TRIPOS>BOND
     1    1    2 1
     2    1   23 1
     3    1   24 1
     4    1   25 1
     5    2    3 1
     6    3   12 ar
     7    3    4 ar
     8    4    5 ar
     9    4   26 1
    10    5   10 ar
    11    5    6 ar
    12    6    7 ar
    13    6   27 1
    14    7    8 ar
    15    7   15 1
    16    8    9 ar
    17    8   28 1
    18    9   10 ar
    19   10   11 ar
    20   11   12 ar
    21   11   29 1
    22   12   13 1
    23   13   14 1
    24   14   30 1
    25   14   31 1
    26   14   32 1
    27   15   16 1
    28   15   33 1
    29   15   34 1
    30   16   17 1
    31   16   35 1
    32   16   36 1
    33   17   22 1
    34   17   18 1
    35   17   37 1
    36   18   19 1
    37   18   38 1
    38   18   39 1
    39   19   20 1
    40   19   40 1
    41   19   41 1
    42   20   21 1
    43   20   42 1
    44   20   43 1
    45   21   22 1
    46   21   44 1
    47   21   45 1
    48   22   46 1
    49   22   47 1
@<TRIPOS>MOLECULE
ZINC03834046
   51    54     0     0     0
SMALL
USER_CHARGES

@<TRIPOS>ATOM
      1 C1         -0.1077   15.5990    0.4133 C.3       1 <0>        -0.0789
      2 C2         -0.3608   14.1448    0.1096 C.2       1 <0>        -0.1827
      3 C3         -1.4613   13.6370   -0.4994 C.2       1 <0>         0.0359
      4 N1         -1.3267   12.2908   -0.6026 N.pl3     1 <0>        -0.5146
      5 H1         -1.9717   11.6864   -1.0020 H         1 <0>         0.4171
      6 C4         -0.1217   11.9251   -0.0417 C.2       1 <0>        -0.0302
      7 C5          0.4958   13.0831    0.4062 C.2       1 <0>        -0.0633
      8 C6          1.8379   13.1776    1.0850 C.3       1 <0>        -0.0407
      9 C7          2.9305   13.3658    0.0306 C.3       1 <0>        -0.1463
     10 C8          4.2727   13.4603    0.7094 C.2       1 <0>         0.4588
     11 O1          4.3476   13.3848    1.9130 O.co2     1 <0>        -0.6409
     12 C9          0.3913   10.6153    0.0534 C.2       1 <0>         0.1102
     13 C10        -0.4675    9.5486    0.2413 C.2       1 <0>        -0.2325
     14 C11        -0.1324    8.1082    0.2121 C.ar      1 <0>        -0.0736
     15 C12         1.0553    7.4112    0.0031 C.ar      1 <0>        -0.0685
     16 C13         1.0578    6.0346    0.0356 C.ar      1 <0>        -0.1199
     17 C14        -0.1292    5.3402    0.2776 C.ar      1 <0>        -0.0269
     18 C15        -1.3195    6.0314    0.4813 C.ar      1 <0>        -0.1222
     19 C16        -1.3297    7.4193    0.4559 C.ar      1 <0>         0.1342
     20 N2         -2.3575    8.3389    0.6291 N.am      1 <0>        -0.6526
     21 C17        -1.9098    9.6005    0.5139 C.2       1 <0>         0.5589
     22 O2         -2.5826   10.6108    0.6170 O.2       1 <0>        -0.5171
     23 C18        -0.1223    3.8575    0.3117 C.ar      1 <0>         0.0014
     24 C19        -1.3043    3.1582    0.5524 C.ar      1 <0>        -0.1488
     25 C20        -1.2962    1.7783    0.5784 C.ar      1 <0>        -0.0780
     26 C21        -0.1165    1.0861    0.3763 C.ar      1 <0>        -0.2103
     27 C22         1.0644    1.7746    0.1356 C.ar      1 <0>         0.1299
     28 C23         1.0648    3.1595    0.1029 C.ar      1 <0>        -0.1418
     29 O3          2.2207    1.0899   -0.0676 O.3       1 <0>        -0.3165
     30 C24         2.1470   -0.3364   -0.0196 C.3       1 <0>         0.0275
     31 H2          0.4086   16.0614   -0.4280 H         1 <0>         0.0612
     32 H3         -1.0580   16.1062    0.5796 H         1 <0>         0.0549
     33 H4          0.5095   15.6812    1.3080 H         1 <0>         0.0655
     34 H5         -2.3060   14.2117   -0.8494 H         1 <0>         0.1642
     35 H6          1.8410   14.0276    1.7672 H         1 <0>         0.0751
     36 H7          2.0272   12.2617    1.6448 H         1 <0>         0.0677
     37 H8          2.9274   12.5158   -0.6516 H         1 <0>         0.0610
     38 H9          2.7412   14.2817   -0.5292 H         1 <0>         0.0650
     39 H10         1.4553   10.4455   -0.0205 H         1 <0>         0.1550
     40 H11         1.9727    7.9496   -0.1843 H         1 <0>         0.1358
     41 H12         1.9775    5.4921   -0.1265 H         1 <0>         0.1339
     42 H13        -2.2349    5.4881    0.6636 H         1 <0>         0.1284
     43 H14        -3.2801    8.1003    0.8100 H         1 <0>         0.4137
     44 H15        -2.2266    3.6961    0.7151 H         1 <0>         0.1267
     45 H16        -2.2132    1.2378    0.7613 H         1 <0>         0.1261
     46 H17        -0.1147    0.0064    0.4014 H         1 <0>         0.1273
     47 H18         1.9830    3.6965   -0.0843 H         1 <0>         0.1374
     48 H19         3.1366   -0.7575   -0.1974 H         1 <0>         0.1005
     49 H20         1.7902   -0.6489    0.9618 H         1 <0>         0.0553
     50 H21         1.4582   -0.6907   -0.7864 H         1 <0>         0.0550
     51 O4          5.3849   13.6284   -0.0231 O.co2     1 <0>        -0.7771
@<TRIPOS>BOND
     1    1    2 1
     2    1   31 1
     3    1   32 1
     4    1   33 1
     5    2    7 1
     6    2    3 2
     7    3    4 1
     8    3   34 1
     9    4    5 1
    10    4    6 1
    11    6    7 2
    12    6   12 1
    13    7    8 1
    14    8    9 1
    15    8   35 1
    16    8   36 1
    17    9   10 1
    18    9   37 1
    19    9   38 1
    20   10   11 2
    21   10   51 1
    22   12   13 2
    23   12   39 1
    24   13   21 1
    25   13   14 1
    26   14   19 ar
    27   14   15 ar
    28   15   16 ar
    29   15   40 1
    30   16   17 ar
    31   16   41 1
    32   17   18 ar
    33   17   23 1
    34   18   19 ar
    35   18   42 1
    36   19   20 1
    37   20   21 am
    38   20   43 1
    39   21   22 2
    40   23   28 ar
    41   23   24 ar
    42   24   25 ar
    43   24   44 1
    44   25   26 ar
    45   25   45 1
    46   26   27 ar
    47   26   46 1
    48   27   28 ar
    49   27   29 1
    50   28   47 1
    51   29   30 1
    52   30   48 1
    53   30   49 1
    54   30   50 1
@<TRIPOS>MOLECULE
ZINC03834047
   44    46     0     0     0
SMALL
USER_CHARGES

@<TRIPOS>ATOM
      1 C1         -0.3077    1.0816    0.1611 C.3       1 <0>        -0.0898
      2 C2         -0.8840    1.3962    1.5175 C.2       1 <0>        -0.0838
      3 C3         -2.2389    1.4635    1.8485 C.2       1 <0>        -0.1576
      4 C4         -2.3328    1.7697    3.1663 C.2       1 <0>         0.0700
      5 N1         -1.0830    1.9068    3.6773 N.pl3     1 <0>        -0.5126
      6 H1         -0.8687    2.1280    4.5971 H         1 <0>         0.4152
      7 C5         -0.1692    1.6792    2.6709 C.2       1 <0>        -0.0338
      8 C6          1.2355    1.7251    2.7926 C.2       1 <0>         0.0971
      9 C7          1.8243    2.6187    3.6659 C.2       1 <0>        -0.2233
     10 C8          3.2541    2.7033    4.0392 C.ar      1 <0>        -0.1191
     11 C9          4.3805    1.9757    3.6676 C.ar      1 <0>        -0.0310
     12 C10         5.6113    2.2990    4.1994 C.ar      1 <0>        -0.2252
     13 C11         5.7248    3.3489    5.1033 C.ar      1 <0>         0.1545
     14 C12         4.6099    4.0827    5.4722 C.ar      1 <0>        -0.1726
     15 C13         3.3623    3.7651    4.9480 C.ar      1 <0>         0.1765
     16 N2          2.1046    4.3181    5.1552 N.am      1 <0>        -0.6521
     17 C14         1.1661    3.6864    4.4300 C.2       1 <0>         0.5563
     18 O1         -0.0225    3.9527    4.4099 O.2       1 <0>        -0.5086
     19 O2          6.9408    3.6625    5.6232 O.3       1 <0>        -0.3165
     20 C15         8.0523    2.8725    5.1962 C.3       1 <0>         0.0274
     21 C16        -3.6170    1.9366    3.9370 C.3       1 <0>        -0.0915
     22 C17        -3.3934    1.2329    0.9078 C.3       1 <0>        -0.0293
     23 C18        -3.7732   -0.2491    0.9202 C.3       1 <0>        -0.1468
     24 C19        -4.9277   -0.4798   -0.0205 C.2       1 <0>         0.4580
     25 O3         -5.3985    0.4463   -0.6375 O.co2     1 <0>        -0.6423
     26 H2         -0.1563    0.0060    0.0712 H         1 <0>         0.0700
     27 H3          0.6472    1.5940    0.0443 H         1 <0>         0.0580
     28 H4         -0.9973    1.4174   -0.6134 H         1 <0>         0.0728
     29 H5          1.8505    1.0615    2.2028 H         1 <0>         0.1493
     30 H6          4.2912    1.1602    2.9653 H         1 <0>         0.1324
     31 H7          6.4875    1.7363    3.9131 H         1 <0>         0.1339
     32 H8          4.7080    4.8954    6.1766 H         1 <0>         0.1333
     33 H9          1.9267    5.0651    5.7479 H         1 <0>         0.4154
     34 H10         8.9595    3.2272    5.6853 H         1 <0>         0.1000
     35 H11         7.8803    1.8295    5.4620 H         1 <0>         0.0575
     36 H12         8.1650    2.9581    4.1154 H         1 <0>         0.0577
     37 H13        -3.9389    2.9767    3.8856 H         1 <0>         0.0756
     38 H14        -4.3860    1.2964    3.5047 H         1 <0>         0.0887
     39 H15        -3.4548    1.6574    4.9781 H         1 <0>         0.0615
     40 H16        -4.2477    1.8295    1.2279 H         1 <0>         0.0652
     41 H17        -3.1038    1.5254   -0.1015 H         1 <0>         0.0679
     42 H18        -2.9190   -0.8458    0.6001 H         1 <0>         0.0618
     43 H19        -4.0628   -0.5416    1.9295 H         1 <0>         0.0596
     44 O4         -5.4331   -1.7139   -0.1729 O.co2     1 <0>        -0.7798
@<TRIPOS>BOND
     1    1    2 1
     2    1   26 1
     3    1   27 1
     4    1   28 1
     5    2    7 2
     6    2    3 1
     7    3    4 2
     8    3   22 1
     9    4    5 1
    10    4   21 1
    11    5    6 1
    12    5    7 1
    13    7    8 1
    14    8    9 2
    15    8   29 1
    16    9   17 1
    17    9   10 1
    18   10   15 ar
    19   10   11 ar
    20   11   12 ar
    21   11   30 1
    22   12   13 ar
    23   12   31 1
    24   13   14 ar
    25   13   19 1
    26   14   15 ar
    27   14   32 1
    28   15   16 1
    29   16   17 am
    30   16   33 1
    31   17   18 2
    32   19   20 1
    33   20   34 1
    34   20   35 1
    35   20   36 1
    36   21   37 1
    37   21   38 1
    38   21   39 1
    39   22   23 1
    40   22   40 1
    41   22   41 1
    42   23   24 1
    43   23   42 1
    44   23   43 1
    45   24   25 2
    46   24   44 1
@<TRIPOS>MOLECULE
ZINC03834050
   36    39     0     0     0
SMALL
USER_CHARGES

@<TRIPOS>ATOM
      1 C1         -1.7334    3.7173    2.0231 C.ar      1 <0>        -0.0468
      2 C2         -0.7274    3.7837    2.9659 C.ar      1 <0>        -0.1343
      3 C3          0.5715    4.0942    2.5798 C.ar      1 <0>         0.1696
      4 C4          0.8395    4.3423    1.2263 C.ar      1 <0>        -0.1095
      5 C5         -0.1817    4.2782    0.2843 C.ar      1 <0>        -0.0277
      6 C6         -1.4662    3.9682    0.6870 C.ar      1 <0>        -0.1180
      7 Br1        -2.8598    3.8786   -0.5880 Br        1 <0>        -0.0392
      8 C7          2.2862    4.6396    1.1356 C.2       1 <0>        -0.1395
      9 C8          3.0115    4.9465    0.0002 C.2       1 <0>         0.0594
     10 C9          4.3945    5.2048    0.0955 C.2       1 <0>        -0.0072
     11 C10         4.9912    6.4538    0.2013 C.2       1 <0>        -0.1408
     12 C11         6.3636    6.2428    0.2715 C.2       1 <0>        -0.1605
     13 C12         6.5903    4.9020    0.2005 C.2       1 <0>         0.0343
     14 N1          5.4029    4.2628    0.0945 N.pl3     1 <0>        -0.5236
     15 H1          5.2806    3.3028    0.0285 H         1 <0>         0.4120
     16 C13         7.9657    4.2788    0.2366 C.3       1 <0>        -0.0515
     17 C14         9.0003    5.3716   -0.0570 C.3       1 <0>        -0.1118
     18 C15         8.7389    6.5799    0.8462 C.3       1 <0>        -0.1202
     19 C16         7.4501    7.2814    0.4007 C.3       1 <0>        -0.0474
     20 C17         2.7843    4.5384    2.5134 C.2       1 <0>         0.5546
     21 O1          3.9353    4.7122    2.8729 O.2       1 <0>        -0.4737
     22 N2          1.7484    4.2202    3.3081 N.am      1 <0>        -0.6563
     23 H2         -2.7391    3.4711    2.3304 H         1 <0>         0.1438
     24 H3         -0.9490    3.5898    4.0050 H         1 <0>         0.1399
     25 H4          0.0285    4.4704   -0.7575 H         1 <0>         0.1405
     26 H5          2.5192    4.9884   -0.9601 H         1 <0>         0.1472
     27 H6          4.4854    7.4077    0.2265 H         1 <0>         0.1364
     28 H7          8.1502    3.8538    1.2233 H         1 <0>         0.0762
     29 H8          8.0341    3.4964   -0.5192 H         1 <0>         0.0710
     30 H9          8.9219    5.6749   -1.1010 H         1 <0>         0.0671
     31 H10        10.0011    4.9846    0.1347 H         1 <0>         0.0692
     32 H11         9.5750    7.2754    0.7736 H         1 <0>         0.0657
     33 H12         8.6327    6.2459    1.8784 H         1 <0>         0.0639
     34 H13         7.6102    7.7668   -0.5620 H         1 <0>         0.0677
     35 H14         7.1606    8.0251    1.1431 H         1 <0>         0.0686
     36 H15         1.8138    4.0947    4.2677 H         1 <0>         0.4208
@<TRIPOS>BOND
     1    1    6 ar
     2    1    2 ar
     3    1   23 1
     4    2    3 ar
     5    2   24 1
     6    3   22 1
     7    3    4 ar
     8    4    5 ar
     9    4    8 1
    10    5    6 ar
    11    5   25 1
    12    6    7 1
    13    8    9 2
    14    8   20 1
    15    9   10 1
    16    9   26 1
    17   10   14 1
    18   10   11 2
    19   11   12 1
    20   11   27 1
    21   12   19 1
    22   12   13 2
    23   13   14 1
    24   13   16 1
    25   14   15 1
    26   16   17 1
    27   16   28 1
    28   16   29 1
    29   17   18 1
    30   17   30 1
    31   17   31 1
    32   18   19 1
    33   18   32 1
    34   18   33 1
    35   19   34 1
    36   19   35 1
    37   20   21 2
    38   20   22 am
    39   22   36 1
@<TRIPOS>MOLECULE
ZINC04617831
   58    62     0     0     0
SMALL
USER_CHARGES

@<TRIPOS>ATOM
      1 C1         -7.0635   -9.2112   -0.0249 C.3       1 <0>         0.0249
      2 O1         -6.5564   -8.1002    0.7171 O.3       1 <0>        -0.3042
      3 C2         -7.1394   -7.8420    1.9166 C.ar      1 <0>         0.1429
      4 C3         -8.1743   -8.6422    2.3734 C.ar      1 <0>        -0.2096
      5 C4         -8.7703   -8.3751    3.5913 C.ar      1 <0>        -0.0790
      6 C5         -8.3357   -7.3121    4.3635 C.ar      1 <0>        -0.1582
      7 C6         -7.3029   -6.5098    3.9232 C.ar      1 <0>        -0.0686
      8 C7         -6.6943   -6.7703    2.6970 C.ar      1 <0>        -0.0761
      9 C8         -5.5843   -5.9116    2.2192 C.ar      1 <0>        -0.0151
     10 C9         -4.3982   -6.4960    1.7699 C.ar      1 <0>        -0.1053
     11 C10        -3.3652   -5.7015    1.3249 C.ar      1 <0>        -0.0709
     12 C11        -3.5083   -4.3161    1.3184 C.ar      1 <0>        -0.0770
     13 C12        -4.6935   -3.7197    1.7738 C.ar      1 <0>         0.1315
     14 C13        -5.7302   -4.5275    2.2203 C.ar      1 <0>        -0.1239
     15 N1         -4.5776   -2.3384    1.6707 N.am      1 <0>        -0.6529
     16 C14        -3.3790   -1.9834    1.1778 C.2       1 <0>         0.5582
     17 O2         -2.9965   -0.8443    0.9776 O.2       1 <0>        -0.5190
     18 C15        -2.6110   -3.2089    0.9217 C.2       1 <0>        -0.2317
     19 C16        -1.3291   -3.3068    0.4142 C.2       1 <0>         0.1073
     20 C17        -0.5540   -2.1437    0.2277 C.2       1 <0>        -0.0320
     21 C18         0.3715   -1.9272   -0.7841 C.2       1 <0>        -0.0582
     22 C19         0.8977   -0.6555   -0.5869 C.2       1 <0>        -0.1742
     23 C20         0.3062   -0.1185    0.5157 C.2       1 <0>         0.0633
     24 N2         -0.5769   -1.0122    1.0172 N.pl3     1 <0>        -0.5061
     25 H1         -1.1328   -0.8800    1.8010 H         1 <0>         0.4152
     26 C21         0.6203    1.2582    1.0519 C.3       1 <0>        -0.0509
     27 C22         1.9448    1.7264    0.4380 C.3       1 <0>        -0.1117
     28 C23         1.8979    1.5449   -1.0811 C.3       1 <0>        -0.1179
     29 C24         1.9398    0.0497   -1.4191 C.3       1 <0>        -0.0478
     30 C25         0.7365   -2.8878   -1.8864 C.3       1 <0>        -0.0396
     31 C26         1.8987   -3.7715   -1.4289 C.3       1 <0>        -0.1457
     32 C27         2.2636   -4.7321   -2.5312 C.2       1 <0>         0.4591
     33 O3          1.6564   -4.7120   -3.5756 O.co2     1 <0>        -0.6410
     34 H2         -8.1200   -9.0521   -0.2409 H         1 <0>         0.0544
     35 H3         -6.5117   -9.3058   -0.9601 H         1 <0>         0.1031
     36 H4         -6.9457  -10.1232    0.5603 H         1 <0>         0.0557
     37 H5         -8.5182   -9.4731    1.7752 H         1 <0>         0.1295
     38 H6         -9.5794   -8.9987    3.9420 H         1 <0>         0.1240
     39 H7         -8.8067   -7.1095    5.3140 H         1 <0>         0.1248
     40 H8         -6.9668   -5.6806    4.5282 H         1 <0>         0.1306
     41 H9         -4.2912   -7.5707    1.7711 H         1 <0>         0.1287
     42 H10        -2.4475   -6.1522    0.9768 H         1 <0>         0.1326
     43 H11        -6.6501   -4.0819    2.5690 H         1 <0>         0.1237
     44 H12        -5.2733   -1.7109    1.9219 H         1 <0>         0.4126
     45 H13        -0.9211   -4.2740    0.1605 H         1 <0>         0.1539
     46 H14        -0.1763    1.9496    0.7772 H         1 <0>         0.0778
     47 H15         0.7131    1.2169    2.1372 H         1 <0>         0.0703
     48 H16         2.1022    2.7789    0.6734 H         1 <0>         0.0663
     49 H17         2.7641    1.1362    0.8486 H         1 <0>         0.0678
     50 H18         2.7550    2.0439   -1.5334 H         1 <0>         0.0643
     51 H19         0.9773    1.9798   -1.4703 H         1 <0>         0.0620
     52 H20         2.9268   -0.3513   -1.1885 H         1 <0>         0.0703
     53 H21         1.7230   -0.0936   -2.4777 H         1 <0>         0.0720
     54 H22        -0.1243   -3.5133   -2.1230 H         1 <0>         0.0675
     55 H23         1.0332   -2.3276   -2.7731 H         1 <0>         0.0742
     56 H24         2.7594   -3.1460   -1.1923 H         1 <0>         0.0644
     57 H25         1.6019   -4.3317   -0.5422 H         1 <0>         0.0608
     58 O4          3.2632   -5.6100   -2.3527 O.co2     1 <0>        -0.7775
@<TRIPOS>BOND
     1    1    2 1
     2    1   34 1
     3    1   35 1
     4    1   36 1
     5    2    3 1
     6    3    8 ar
     7    3    4 ar
     8    4    5 ar
     9    4   37 1
    10    5    6 ar
    11    5   38 1
    12    6    7 ar
    13    6   39 1
    14    7    8 ar
    15    7   40 1
    16    8    9 1
    17    9   14 ar
    18    9   10 ar
    19   10   11 ar
    20   10   41 1
    21   11   12 ar
    22   11   42 1
    23   12   18 1
    24   12   13 ar
    25   13   14 ar
    26   13   15 1
    27   14   43 1
    28   15   16 am
    29   15   44 1
    30   16   17 2
    31   16   18 1
    32   18   19 2
    33   19   20 1
    34   19   45 1
    35   20   24 1
    36   20   21 2
    37   21   22 1
    38   21   30 1
    39   22   29 1
    40   22   23 2
    41   23   24 1
    42   23   26 1
    43   24   25 1
    44   26   27 1
    45   26   46 1
    46   26   47 1
    47   27   28 1
    48   27   48 1
    49   27   49 1
    50   28   29 1
    51   28   50 1
    52   28   51 1
    53   29   52 1
    54   29   53 1
    55   30   31 1
    56   30   54 1
    57   30   55 1
    58   31   32 1
    59   31   56 1
    60   31   57 1
    61   32   33 2
    62   32   58 1
@<TRIPOS>MOLECULE
ZINC04628819
   37    39     0     0     0
SMALL
USER_CHARGES

@<TRIPOS>ATOM
      1 C1          0.0021   -0.0041    0.0020 C.ar      1 <0>        -0.1144
      2 C2         -0.0167    1.3786    0.0096 C.ar      1 <0>        -0.1002
      3 C3          1.1691    2.0868    0.0021 C.ar      1 <0>        -0.1182
      4 C4          2.3808    1.4090   -0.0135 C.ar      1 <0>         0.1242
      5 C5          2.3963    0.0206   -0.0207 C.ar      1 <0>        -0.1182
      6 C6          1.2072   -0.6820   -0.0126 C.ar      1 <0>        -0.0993
      7 N1          3.5854    2.1246   -0.0221 N.pl3     1 <0>        -0.4468
      8 C7          4.6488    1.9267    0.8061 C.2       1 <0>         0.2781
      9 N2          5.5998    2.7679    0.5210 N.2       1 <0>        -0.4896
     10 C8          5.2137    3.5641   -0.5093 C.ar      1 <0>         0.0890
     11 C9          3.9191    3.1605   -0.8776 C.ar      1 <0>         0.0181
     12 C10         3.2575    3.8075   -1.9112 C.ar      1 <0>        -0.0660
     13 C11         3.8768    4.8387   -2.5844 C.ar      1 <0>        -0.1804
     14 C12         5.1611    5.2407   -2.2293 C.ar      1 <0>         0.1232
     15 C13         5.8307    4.6109   -1.1989 C.ar      1 <0>        -0.1022
     16 O1          5.7602    6.2596   -2.9014 O.3       1 <0>        -0.2987
     17 C14         5.0133    6.8686   -3.9565 C.3       1 <0>         0.0306
     18 C15         5.8442    7.9859   -4.5906 C.3       1 <0>         0.1092
     19 H1          6.1578    8.6884   -3.8185 H         1 <0>         0.1175
     20 C16         5.0002    8.7192   -5.6350 C.3       1 <0>         0.0489
     21 O2          5.7350    9.8343   -6.1437 O.3       1 <0>        -0.5602
     22 O3          6.9975    7.4235   -5.2196 O.3       1 <0>        -0.5408
     23 H2         -0.9264   -0.5556    0.0079 H         1 <0>         0.1315
     24 H3         -0.9595    1.9053    0.0169 H         1 <0>         0.1336
     25 H4          1.1538    3.1667    0.0077 H         1 <0>         0.1291
     26 H5          3.3373   -0.5094   -0.0328 H         1 <0>         0.1320
     27 H6          1.2187   -1.7619   -0.0182 H         1 <0>         0.1347
     28 H7          4.6957    1.1807    1.5857 H         1 <0>         0.2175
     29 H8          2.2606    3.5006   -2.1911 H         1 <0>         0.1271
     30 H9          3.3622    5.3379   -3.3921 H         1 <0>         0.1360
     31 H10         6.8272    4.9264   -0.9270 H         1 <0>         0.1417
     32 H11         4.7746    6.1199   -4.7118 H         1 <0>         0.0688
     33 H12         4.0901    7.2859   -3.5542 H         1 <0>         0.0745
     34 H13         4.7611    8.0385   -6.4520 H         1 <0>         0.0533
     35 H14         4.0776    9.0719   -5.1741 H         1 <0>         0.0590
     36 H15         5.2598   10.3466   -6.8121 H         1 <0>         0.3842
     37 H16         6.7933    6.7877   -5.9190 H         1 <0>         0.3733
@<TRIPOS>BOND
     1    1    6 ar
     2    1    2 ar
     3    1   23 1
     4    2    3 ar
     5    2   24 1
     6    3    4 ar
     7    3   25 1
     8    4    5 ar
     9    4    7 1
    10    5    6 ar
    11    5   26 1
    12    6   27 1
    13    7   11 1
    14    7    8 1
    15    8    9 2
    16    8   28 1
    17    9   10 1
    18   10   15 ar
    19   10   11 ar
    20   11   12 ar
    21   12   13 ar
    22   12   29 1
    23   13   14 ar
    24   13   30 1
    25   14   15 ar
    26   14   16 1
    27   15   31 1
    28   16   17 1
    29   17   18 1
    30   17   32 1
    31   17   33 1
    32   18   19 1
    33   18   20 1
    34   18   22 1
    35   20   21 1
    36   20   34 1
    37   20   35 1
    38   21   36 1
    39   22   37 1
@<TRIPOS>MOLECULE
ZINC04628820
   34    37     0     0     0
SMALL
USER_CHARGES

@<TRIPOS>ATOM
      1 C1         -0.0544    4.1634    0.0250 C.ar      1 <0>        -0.1141
      2 C2          1.1531    3.4898    0.0098 C.ar      1 <0>        -0.0995
      3 C3          1.1751    2.1088    0.0022 C.ar      1 <0>        -0.1180
      4 C4         -0.0169    1.3969    0.0097 C.ar      1 <0>         0.1237
      5 C5         -1.2279    2.0762    0.0191 C.ar      1 <0>        -0.1179
      6 C6         -1.2433    3.4572    0.0330 C.ar      1 <0>        -0.1001
      7 N1          0.0021   -0.0041    0.0020 N.pl3     1 <0>        -0.4465
      8 C7          0.7102   -0.7980   -0.8489 C.2       1 <0>         0.2782
      9 N2          0.4950   -2.0515   -0.5739 N.2       1 <0>        -0.4899
     10 C8         -0.3658   -2.1500    0.4721 C.ar      1 <0>         0.0885
     11 C9         -0.6906   -0.8395    0.8615 C.ar      1 <0>         0.0187
     12 C10        -1.5572   -0.6251    1.9234 C.ar      1 <0>        -0.0652
     13 C11        -2.0965   -1.6994    2.5980 C.ar      1 <0>        -0.1790
     14 C12        -1.7775   -3.0004    2.2202 C.ar      1 <0>         0.1251
     15 C13        -0.9229   -3.2308    1.1602 C.ar      1 <0>        -0.1026
     16 O1         -2.3166   -4.0511    2.8942 O.3       1 <0>        -0.3079
     17 C14        -3.1991   -3.7443    3.9754 C.3       1 <0>         0.0725
     18 C15        -3.7020   -5.0437    4.6077 C.3       1 <0>        -0.0100
     19 H1         -3.0224   -5.8936    4.5460 H         1 <0>         0.1387
     20 C16        -4.5977   -4.9352    5.8433 C.3       1 <0>        -0.0226
     21 O2         -5.1054   -5.3084    4.5588 O.3       1 <0>        -0.3507
     22 H2         -0.0691    5.2433    0.0310 H         1 <0>         0.1316
     23 H3          2.0800    4.0441    0.0043 H         1 <0>         0.1347
     24 H4          2.1186    1.5833   -0.0093 H         1 <0>         0.1319
     25 H5         -2.1568    1.5252    0.0205 H         1 <0>         0.1292
     26 H6         -2.1848    3.9861    0.0449 H         1 <0>         0.1337
     27 H7          1.3558   -0.4394   -1.6370 H         1 <0>         0.2175
     28 H8         -1.8086    0.3821    2.2214 H         1 <0>         0.1278
     29 H9         -2.7710   -1.5306    3.4244 H         1 <0>         0.1376
     30 H10        -0.6769   -4.2421    0.8720 H         1 <0>         0.1415
     31 H11        -2.6663   -3.1583    4.7243 H         1 <0>         0.0847
     32 H12        -4.0469   -3.1706    3.6009 H         1 <0>         0.0751
     33 H13        -4.5134   -5.7137    6.6016 H         1 <0>         0.1193
     34 H14        -4.8341   -3.9375    6.2133 H         1 <0>         0.1143
@<TRIPOS>BOND
     1    1    6 ar
     2    1    2 ar
     3    1   22 1
     4    2    3 ar
     5    2   23 1
     6    3    4 ar
     7    3   24 1
     8    4    5 ar
     9    4    7 1
    10    5    6 ar
    11    5   25 1
    12    6   26 1
    13    7   11 1
    14    7    8 1
    15    8    9 2
    16    8   27 1
    17    9   10 1
    18   10   15 ar
    19   10   11 ar
    20   11   12 ar
    21   12   13 ar
    22   12   28 1
    23   13   14 ar
    24   13   29 1
    25   14   15 ar
    26   14   16 1
    27   15   30 1
    28   16   17 1
    29   17   18 1
    30   17   31 1
    31   17   32 1
    32   18   19 1
    33   18   21 1
    34   18   20 1
    35   20   21 1
    36   20   33 1
    37   20   34 1
@<TRIPOS>MOLECULE
ZINC04632533
   54    58     0     0     0
SMALL
USER_CHARGES

@<TRIPOS>ATOM
      1 C1         -9.2884   -8.4274    1.6457 C.ar      1 <0>        -0.1218
      2 C2         -8.0219   -8.9239    1.8967 C.ar      1 <0>        -0.1173
      3 C3         -6.9132   -8.1268    1.6966 C.ar      1 <0>        -0.1088
      4 C4         -7.0715   -6.8191    1.2407 C.ar      1 <0>        -0.0391
      5 C5         -8.3505   -6.3224    0.9949 C.ar      1 <0>        -0.1125
      6 C6         -9.4515   -7.1304    1.1930 C.ar      1 <0>        -0.1189
      7 C7         -5.8840   -5.9577    1.0237 C.ar      1 <0>        -0.0250
      8 C8         -4.6061   -6.4602    1.2770 C.ar      1 <0>        -0.1240
      9 C9         -3.5011   -5.6632    1.0767 C.ar      1 <0>        -0.0684
     10 C10        -3.6607   -4.3586    0.6158 C.ar      1 <0>        -0.0752
     11 C11        -4.9409   -3.8431    0.3643 C.ar      1 <0>         0.1352
     12 C12        -6.0494   -4.6532    0.5684 C.ar      1 <0>        -0.1267
     13 N1         -4.8251   -2.5296   -0.0754 N.am      1 <0>        -0.6530
     14 C13        -3.5395   -2.1416   -0.1244 C.2       1 <0>         0.5584
     15 O1         -3.1354   -1.0461   -0.4718 O.2       1 <0>        -0.5175
     16 C14        -2.7067   -3.2693    0.3135 C.2       1 <0>        -0.2353
     17 C15        -1.3286   -3.3067    0.4154 C.2       1 <0>         0.1112
     18 C16        -0.5759   -2.1289    0.2307 C.2       1 <0>        -0.0341
     19 C17         0.6870   -2.0422   -0.3394 C.2       1 <0>        -0.0560
     20 C18         1.0486   -0.7000   -0.3217 C.2       1 <0>        -0.1744
     21 C19         0.0312    0.0056    0.2453 C.2       1 <0>         0.0653
     22 N2         -0.9598   -0.8511    0.5832 N.pl3     1 <0>        -0.5063
     23 H1         -1.7996   -0.6079    1.0033 H         1 <0>         0.4153
     24 C20         0.0543    1.5028    0.4430 C.3       1 <0>        -0.0513
     25 C21         1.5027    1.9868    0.3072 C.3       1 <0>        -0.1119
     26 C22         2.1117    1.4267   -0.9804 C.3       1 <0>        -0.1180
     27 C23         2.3289   -0.0838   -0.8286 C.3       1 <0>        -0.0480
     28 C24         1.5092   -3.1856   -0.8759 C.3       1 <0>        -0.0400
     29 C25         2.3870   -3.7512    0.2422 C.3       1 <0>        -0.1457
     30 C26         3.2092   -4.8946   -0.2943 C.2       1 <0>         0.4590
     31 O2          3.1039   -5.2232   -1.4522 O.co2     1 <0>        -0.6408
     32 H2        -10.1532   -9.0549    1.8033 H         1 <0>         0.1212
     33 H3         -7.9005   -9.9371    2.2503 H         1 <0>         0.1243
     34 H4         -5.9249   -8.5156    1.8926 H         1 <0>         0.1287
     35 H5         -8.4792   -5.3084    0.6461 H         1 <0>         0.1240
     36 H6        -10.4426   -6.7482    0.9983 H         1 <0>         0.1224
     37 H7         -4.4844   -7.4735    1.6303 H         1 <0>         0.1322
     38 H8         -2.5121   -6.0507    1.2722 H         1 <0>         0.1348
     39 H9         -7.0406   -4.2709    0.3740 H         1 <0>         0.1267
     40 H10        -5.5763   -1.9653   -0.3165 H         1 <0>         0.4133
     41 H11        -0.8285   -4.2380    0.6365 H         1 <0>         0.1545
     42 H12        -0.5655    1.9826   -0.3145 H         1 <0>         0.0782
     43 H13        -0.3230    1.7478    1.4358 H         1 <0>         0.0707
     44 H14         1.5199    3.0761    0.2733 H         1 <0>         0.0666
     45 H15         2.0828    1.6411    1.1629 H         1 <0>         0.0679
     46 H16         3.0677    1.9138   -1.1722 H         1 <0>         0.0646
     47 H17         1.4345    1.6145   -1.8136 H         1 <0>         0.0621
     48 H18         3.1328   -0.2693   -0.1163 H         1 <0>         0.0707
     49 H19         2.5870   -0.5165   -1.7951 H         1 <0>         0.0723
     50 H20         0.8462   -3.9668   -1.2478 H         1 <0>         0.0677
     51 H21         2.1415   -2.8284   -1.6888 H         1 <0>         0.0747
     52 H22         3.0500   -2.9700    0.6141 H         1 <0>         0.0646
     53 H23         1.7547   -4.1084    1.0551 H         1 <0>         0.0608
     54 O3          4.0586   -5.5478    0.5142 O.co2     1 <0>        -0.7771
@<TRIPOS>BOND
     1    1    6 ar
     2    1    2 ar
     3    1   32 1
     4    2    3 ar
     5    2   33 1
     6    3    4 ar
     7    3   34 1
     8    4    5 ar
     9    4    7 1
    10    5    6 ar
    11    5   35 1
    12    6   36 1
    13    7   12 ar
    14    7    8 ar
    15    8    9 ar
    16    8   37 1
    17    9   10 ar
    18    9   38 1
    19   10   16 1
    20   10   11 ar
    21   11   12 ar
    22   11   13 1
    23   12   39 1
    24   13   14 am
    25   13   40 1
    26   14   15 2
    27   14   16 1
    28   16   17 2
    29   17   18 1
    30   17   41 1
    31   18   22 1
    32   18   19 2
    33   19   20 1
    34   19   28 1
    35   20   27 1
    36   20   21 2
    37   21   22 1
    38   21   24 1
    39   22   23 1
    40   24   25 1
    41   24   42 1
    42   24   43 1
    43   25   26 1
    44   25   44 1
    45   25   45 1
    46   26   27 1
    47   26   46 1
    48   26   47 1
    49   27   48 1
    50   27   49 1
    51   28   29 1
    52   28   50 1
    53   28   51 1
    54   29   30 1
    55   29   52 1
    56   29   53 1
    57   30   31 2
    58   30   54 1
@<TRIPOS>MOLECULE
ZINC04632535
   58    62     0     0     0
SMALL
USER_CHARGES

@<TRIPOS>ATOM
      1 C1          2.1484   -0.3360   -0.0204 C.3       1 <0>         0.0276
      2 O1          2.2218    1.0903   -0.0683 O.3       1 <0>        -0.3165
      3 C2          1.0654    1.7748    0.1347 C.ar      1 <0>         0.1299
      4 C3         -0.1158    1.0859    0.3751 C.ar      1 <0>        -0.2103
      5 C4         -1.2953    1.7777    0.5769 C.ar      1 <0>        -0.0780
      6 C5         -1.3036    3.1580    0.5511 C.ar      1 <0>        -0.1490
      7 C6         -0.1220    3.8573    0.3108 C.ar      1 <0>         0.0019
      8 C7          1.0656    3.1593    0.1022 C.ar      1 <0>        -0.1421
      9 C8         -0.1289    5.3400    0.2778 C.ar      1 <0>        -0.0278
     10 C9          1.0582    6.0346    0.0371 C.ar      1 <0>        -0.1198
     11 C10         1.0557    7.4113    0.0053 C.ar      1 <0>        -0.0694
     12 C11        -0.1323    8.1080    0.2136 C.ar      1 <0>        -0.0723
     13 C12        -1.3298    7.4189    0.4561 C.ar      1 <0>         0.1337
     14 C13        -1.3194    6.0311    0.4813 C.ar      1 <0>        -0.1221
     15 N1         -2.3577    8.3383    0.6296 N.am      1 <0>        -0.6528
     16 C14        -1.9098    9.6001    0.5159 C.2       1 <0>         0.5585
     17 O2         -2.5827   10.6103    0.6197 O.2       1 <0>        -0.5175
     18 C15        -0.4674    9.5484    0.2440 C.2       1 <0>        -0.2357
     19 C16         0.3915   10.6153    0.0572 C.2       1 <0>         0.1120
     20 C17        -0.1216   11.9252   -0.0369 C.2       1 <0>        -0.0344
     21 C18         0.4917   13.0825    0.4235 C.2       1 <0>        -0.0556
     22 C19        -0.3593   14.1397    0.1223 C.2       1 <0>        -0.1746
     23 C20        -1.4622   13.6332   -0.4953 C.2       1 <0>         0.0656
     24 N2         -1.3280   12.2910   -0.5982 N.pl3     1 <0>        -0.5063
     25 H1         -1.9719   11.6868   -0.9997 H         1 <0>         0.4153
     26 C21        -2.6225   14.4764   -0.9686 C.3       1 <0>        -0.0521
     27 C22        -2.5391   15.8442   -0.2811 C.3       1 <0>        -0.1108
     28 C23        -1.1277   16.4144   -0.4454 C.3       1 <0>        -0.1180
     29 C24        -0.1468   15.6050    0.4115 C.3       1 <0>        -0.0485
     30 C25         1.8272   13.1753    1.1156 C.3       1 <0>        -0.0402
     31 C26         2.9295   13.3708    0.0727 C.3       1 <0>        -0.1460
     32 C27         4.2650   13.4636    0.7647 C.2       1 <0>         0.4589
     33 O3          4.3286   13.3819    1.9685 O.co2     1 <0>        -0.6407
     34 H2          1.7914   -0.6487    0.9608 H         1 <0>         0.0553
     35 H3          1.4598   -0.6903   -0.7875 H         1 <0>         0.0550
     36 H4          3.1380   -0.7569   -0.1981 H         1 <0>         0.1004
     37 H5         -0.1139    0.0062    0.4001 H         1 <0>         0.1272
     38 H6         -2.2123    1.2370    0.7591 H         1 <0>         0.1260
     39 H7         -2.2261    3.6957    0.7132 H         1 <0>         0.1267
     40 H8          1.9839    3.6964   -0.0840 H         1 <0>         0.1373
     41 H9          1.9781    5.4923   -0.1244 H         1 <0>         0.1336
     42 H10         1.9731    7.9498   -0.1811 H         1 <0>         0.1354
     43 H11        -2.2348    5.4875    0.6629 H         1 <0>         0.1281
     44 H12        -3.2805    8.0996    0.8093 H         1 <0>         0.4134
     45 H13         1.4555   10.4455   -0.0165 H         1 <0>         0.1546
     46 H14        -2.5661   14.6048   -2.0495 H         1 <0>         0.0762
     47 H15        -3.5615   13.9894   -0.7054 H         1 <0>         0.0729
     48 H16        -3.2604   16.5235   -0.7354 H         1 <0>         0.0667
     49 H17        -2.7640   15.7319    0.7795 H         1 <0>         0.0669
     50 H18        -0.8310   16.3540   -1.4925 H         1 <0>         0.0635
     51 H19        -1.1170   17.4560   -0.1242 H         1 <0>         0.0646
     52 H20         0.8766   15.8840    0.1606 H         1 <0>         0.0749
     53 H21        -0.3330   15.8016    1.4674 H         1 <0>         0.0677
     54 H22         1.8225   14.0218    1.8023 H         1 <0>         0.0747
     55 H23         2.0126   12.2568    1.6723 H         1 <0>         0.0680
     56 H24         2.9342   12.5243   -0.6140 H         1 <0>         0.0610
     57 H25         2.7442   14.2893   -0.4841 H         1 <0>         0.0646
     58 O4          5.3839   13.6372    0.0437 O.co2     1 <0>        -0.7771
@<TRIPOS>BOND
     1    1    2 1
     2    1   34 1
     3    1   35 1
     4    1   36 1
     5    2    3 1
     6    3    8 ar
     7    3    4 ar
     8    4    5 ar
     9    4   37 1
    10    5    6 ar
    11    5   38 1
    12    6    7 ar
    13    6   39 1
    14    7    8 ar
    15    7    9 1
    16    8   40 1
    17    9   14 ar
    18    9   10 ar
    19   10   11 ar
    20   10   41 1
    21   11   12 ar
    22   11   42 1
    23   12   18 1
    24   12   13 ar
    25   13   14 ar
    26   13   15 1
    27   14   43 1
    28   15   16 am
    29   15   44 1
    30   16   17 2
    31   16   18 1
    32   18   19 2
    33   19   20 1
    34   19   45 1
    35   20   24 1
    36   20   21 2
    37   21   22 1
    38   21   30 1
    39   22   29 1
    40   22   23 2
    41   23   24 1
    42   23   26 1
    43   24   25 1
    44   26   27 1
    45   26   46 1
    46   26   47 1
    47   27   28 1
    48   27   48 1
    49   27   49 1
    50   28   29 1
    51   28   50 1
    52   28   51 1
    53   29   52 1
    54   29   53 1
    55   30   31 1
    56   30   54 1
    57   30   55 1
    58   31   32 1
    59   31   56 1
    60   31   57 1
    61   32   33 2
    62   32   58 1
