@<TRIPOS>MOLECULE
ZINC00007489
 29 31 0 0 0
SMALL
USER_CHARGES

@<TRIPOS>ATOM
      1 C1         12.7294    9.3405   12.2696 C.3     1  <0>1        0.0268
      2 O1         12.0297   10.5730   12.0867 O.3     1  <0>1       -0.3147
      3 C2         11.3070   11.0349   13.1418 C.ar    1  <0>1        0.1222
      4 C3         11.2757   10.3095   14.3296 C.ar    1  <0>1       -0.1781
      5 C4         10.5471   10.7659   15.4065 C.ar    1  <0>1       -0.0667
      6 C5          9.8393   11.9557   15.3087 C.ar    1  <0>1        0.0174
      7 C6          9.8658   12.6935   14.1134 C.ar    1  <0>1        0.0877
      8 C7         10.6085   12.2202   13.0284 C.ar    1  <0>1       -0.1058
      9 N1          9.0940   13.7938   14.3090 N.ar    1  <0>1       -0.4902
     10 C8          8.6075   13.7802   15.5157 C.ar    1  <0>1        0.2769
     11 N2          9.0336   12.6692   16.1792 N.ar    1  <0>1       -0.4467
     12 C9          8.7198   12.3176   17.4987 C.ar    1  <0>1        0.1243
     13 C10         8.2483   11.0435   17.7857 C.ar    1  <0>1       -0.1181
     14 C11         7.9457   10.6979   19.0882 C.ar    1  <0>1       -0.1002
     15 C12         8.1005   11.6230   20.1043 C.ar    1  <0>1       -0.1145
     16 C13         8.5641   12.8946   19.8207 C.ar    1  <0>1       -0.0995
     17 C14         8.8742   13.2442   18.5210 C.ar    1  <0>1       -0.1183
     18 H1         13.4409    9.4447   13.0888 H       1  <0>1        0.0559
     19 H2         12.0171    8.5498   12.5054 H       1  <0>1        0.0559
     20 H3         13.2639    9.0868   11.3543 H       1  <0>1        0.1019
     21 H4         11.8256    9.3832   14.4074 H       1  <0>1        0.1384
     22 H5         10.5264   10.1983   16.3251 H       1  <0>1        0.1269
     23 H6         10.6362   12.7797   12.1049 H       1  <0>1        0.1405
     24 H7          7.9609   14.5390   15.9309 H       1  <0>1        0.2172
     25 H8          8.1226   10.3222   16.9918 H       1  <0>1        0.1292
     26 H9          7.5834    9.7055   19.3128 H       1  <0>1        0.1336
     27 H10         7.8593   11.3517   21.1215 H       1  <0>1        0.1315
     28 H11         8.6840   13.6149   20.6164 H       1  <0>1        0.1346
     29 H12         9.2368   14.2374   18.3004 H       1  <0>1        0.1318
@<TRIPOS>BOND
     1     1     2    1
     2     1    18    1
     3     1    19    1
     4     1    20    1
     5     2     3    1
     6     3     8   ar
     7     3     4   ar
     8     4     5   ar
     9     4    21    1
    10     5     6   ar
    11     5    22    1
    12     6    11   ar
    13     6     7   ar
    14     7     8   ar
    15     7     9   ar
    16     8    23    1
    17     9    10   ar
    18    10    11   ar
    19    10    24    1
    20    11    12    1
    21    12    17   ar
    22    12    13   ar
    23    13    14   ar
    24    13    25    1
    25    14    15   ar
    26    14    26    1
    27    15    16   ar
    28    15    27    1
    29    16    17   ar
    30    16    28    1
    31    17    29    1
@<TRIPOS>MOLECULE
ZINC00008074
 39 41 0 0 0
SMALL
USER_CHARGES

@<TRIPOS>ATOM
      1 C1          3.4678   17.3400   19.0969 C.3     1  <0>1        0.0255
      2 O1          4.3668   16.6179   19.9410 O.3     1  <0>1       -0.3155
      3 C2          5.3476   15.9035   19.3296 C.ar    1  <0>1        0.1329
      4 C3          6.2547   15.1793   20.0914 C.ar    1  <0>1       -0.1467
      5 C4          7.2513   14.4532   19.4737 C.ar    1  <0>1       -0.0673
      6 C5          7.3477   14.4475   18.0831 C.ar    1  <0>1       -0.0816
      7 C6          6.4391   15.1802   17.3213 C.ar    1  <0>1       -0.0677
      8 C7          5.4411   15.8997   17.9444 C.ar    1  <0>1       -0.2050
      9 C8          8.4188   13.6680   17.4157 C.ar    1  <0>1       -0.0900
     10 C9          8.5220   13.6647   16.0316 C.ar    1  <0>1       -0.0576
     11 C10         9.5503   12.9058   15.4485 C.ar    1  <0>1       -0.0844
     12 C11         9.7111   12.8505   14.0530 C.ar    1  <0>1       -0.1754
     13 C12        10.7199   12.1039   13.5189 C.ar    1  <0>1        0.1264
     14 C13        11.5990   11.3903   14.3483 C.ar    1  <0>1        0.1382
     15 C14        11.4666   11.4257   15.7058 C.ar    1  <0>1       -0.1696
     16 C15        10.4377   12.1853   16.2884 C.ar    1  <0>1        0.1363
     17 N1         10.2910   12.2326   17.6170 N.ar    1  <0>1       -0.4673
     18 C16         9.3389   12.9339   18.1794 C.ar    1  <0>1        0.1363
     19 O2         12.5958   10.6535   13.7914 O.3     1  <0>1       -0.3013
     20 C17        13.4588    9.9485   14.6860 C.3     1  <0>1        0.0216
     21 O3         10.8757   12.0508   12.1695 O.3     1  <0>1       -0.3017
     22 C18         9.9492   12.7988   11.3796 C.3     1  <0>1        0.0227
     23 H1          4.0282   18.0613   18.5021 H       1  <0>1        0.0570
     24 H2          2.9536   16.6439   18.4340 H       1  <0>1        0.0570
     25 H3          2.7360   17.8653   19.7105 H       1  <0>1        0.1024
     26 H4          6.1794   15.1841   21.1687 H       1  <0>1        0.1360
     27 H5          7.9565   13.8901   20.0668 H       1  <0>1        0.1355
     28 H6          6.5138   15.1809   16.2438 H       1  <0>1        0.1276
     29 H7          4.7339   16.4638   17.3545 H       1  <0>1        0.1317
     30 H8          7.8293   14.2248   15.4210 H       1  <0>1        0.1396
     31 H9          9.0390   13.3960   13.4073 H       1  <0>1        0.1449
     32 H10        12.1505   10.8711   16.3311 H       1  <0>1        0.1511
     33 H11         9.2572   12.9437   19.2562 H       1  <0>1        0.1614
     34 H12        14.2080    9.4022   14.1131 H       1  <0>1        0.1055
     35 H13        13.9543   10.6587   15.3481 H       1  <0>1        0.0600
     36 H14        12.8723    9.2469   15.2793 H       1  <0>1        0.0600
     37 H15         8.9373   12.4424   11.5717 H       1  <0>1        0.0581
     38 H16        10.0183   13.8547   11.6411 H       1  <0>1        0.0581
     39 H17        10.1853   12.6698   10.3233 H       1  <0>1        0.1051
@<TRIPOS>BOND
     1     1     2    1
     2     1    23    1
     3     1    24    1
     4     1    25    1
     5     2     3    1
     6     3     8   ar
     7     3     4   ar
     8     4     5   ar
     9     4    26    1
    10     5     6   ar
    11     5    27    1
    12     6     7   ar
    13     6     9    1
    14     7     8   ar
    15     7    28    1
    16     8    29    1
    17     9    18   ar
    18     9    10   ar
    19    10    11   ar
    20    10    30    1
    21    11    16   ar
    22    11    12   ar
    23    12    13   ar
    24    12    31    1
    25    13    14   ar
    26    13    21    1
    27    14    15   ar
    28    14    19    1
    29    15    16   ar
    30    15    32    1
    31    16    17   ar
    32    17    18   ar
    33    18    33    1
    34    19    20    1
    35    20    34    1
    36    20    35    1
    37    20    36    1
    38    21    22    1
    39    22    37    1
    40    22    38    1
    41    22    39    1
@<TRIPOS>MOLECULE
ZINC00008075
 32 34 0 0 0
SMALL
USER_CHARGES

@<TRIPOS>ATOM
      1 C1         11.6437    8.2572   15.0028 C.3     1  <0>1        0.0226
      2 O1         11.7482    8.9276   16.2603 O.3     1  <0>1       -0.3015
      3 C2         11.1591   10.1489   16.3596 C.ar    1  <0>1        0.1263
      4 C3         10.5078   10.6738   15.2817 C.ar    1  <0>1       -0.1745
      5 C4          9.8985   11.9360   15.3845 C.ar    1  <0>1       -0.0850
      6 C5          9.2193   12.5058   14.2941 C.ar    1  <0>1       -0.0527
      7 C6          8.6411   13.7550   14.4673 C.ar    1  <0>1       -0.0822
      8 C7          8.7516   14.4023   15.7078 C.ar    1  <0>1        0.1392
      9 N1          9.3890   13.8551   16.7119 N.ar    1  <0>1       -0.4679
     10 C8          9.9665   12.6531   16.6063 C.ar    1  <0>1        0.1372
     11 C9         10.6453   12.0840   17.6970 C.ar    1  <0>1       -0.1698
     12 C10        11.2274   10.8565   17.5691 C.ar    1  <0>1        0.1391
     13 O2         11.8821   10.3117   18.6280 O.3     1  <0>1       -0.3011
     14 C11        11.9178   11.0789   19.8331 C.3     1  <0>1        0.0215
     15 C12         7.9117   14.4022   13.3491 C.ar    1  <0>1       -0.0774
     16 C13         7.3282   15.6552   13.5109 C.ar    1  <0>1       -0.1526
     17 C14         6.6718   16.2127   12.4685 C.ar    1  <0>1       -0.1656
     18 S1          6.8546   14.9718   11.1989 S.2     1  <0>1        0.0532
     19 C15         7.8025   13.7839   12.1350 C.ar    1  <0>1       -0.1687
     20 H1         12.1553    7.2964   15.0596 H       1  <0>1        0.1053
     21 H2         10.5927    8.0956   14.7634 H       1  <0>1        0.0583
     22 H3         12.1035    8.8682   14.2259 H       1  <0>1        0.0582
     23 H4         10.4608   10.1223   14.3544 H       1  <0>1        0.1453
     24 H5          9.1491   11.9866   13.3497 H       1  <0>1        0.1390
     25 H6          8.2961   15.3729   15.8384 H       1  <0>1        0.1605
     26 H7         10.7060   12.6168   18.6345 H       1  <0>1        0.1512
     27 H8         12.4113   12.0319   19.6426 H       1  <0>1        0.0601
     28 H9         10.9001   11.2594   20.1792 H       1  <0>1        0.0601
     29 H10        12.4695   10.5304   20.5967 H       1  <0>1        0.1057
     30 H11         7.3989   16.1748   14.4549 H       1  <0>1        0.1396
     31 H12         6.1659   17.1655   12.4173 H       1  <0>1        0.1899
     32 H13         8.1883   12.8245   11.8234 H       1  <0>1        0.1869
@<TRIPOS>BOND
     1     1     2    1
     2     1    20    1
     3     1    21    1
     4     1    22    1
     5     2     3    1
     6     3    12   ar
     7     3     4   ar
     8     4     5   ar
     9     4    23    1
    10     5    10   ar
    11     5     6   ar
    12     6     7   ar
    13     6    24    1
    14     7     8   ar
    15     7    15    1
    16     8     9   ar
    17     8    25    1
    18     9    10   ar
    19    10    11   ar
    20    11    12   ar
    21    11    26    1
    22    12    13    1
    23    13    14    1
    24    14    27    1
    25    14    28    1
    26    14    29    1
    27    15    19   ar
    28    15    16   ar
    29    16    17   ar
    30    16    30    1
    31    17    18   ar
    32    17    31    1
    33    18    19   ar
    34    19    32    1
@<TRIPOS>MOLECULE
ZINC00008076
 28 30 0 0 0
SMALL
USER_CHARGES

@<TRIPOS>ATOM
      1 C1         12.0849   11.2715   10.9440 C.3     1  <0>1        0.0243
      2 O1         12.0422   10.4929   12.1416 O.3     1  <0>1       -0.3123
      3 C2         11.3031   10.9839   13.1703 C.ar    1  <0>1        0.1458
      4 C3         10.6267   12.1987   13.0169 C.ar    1  <0>1       -0.1877
      5 C4          9.8851   12.7154   14.0327 C.ar    1  <0>1       -0.0542
      6 C5          9.7892   12.0219   15.2517 C.ar    1  <0>1       -0.1281
      7 C6          9.0309   12.5320   16.3194 C.ar    1  <0>1       -0.0388
      8 C7          8.9806   11.7952   17.4936 C.ar    1  <0>1       -0.0947
      9 C8          9.6785   10.5802   17.5784 C.ar    1  <0>1        0.1556
     10 N1         10.3800   10.1217   16.5729 N.ar    1  <0>1       -0.4750
     11 C9         10.4666   10.7870   15.4153 C.ar    1  <0>1        0.1629
     12 C10        11.2250   10.2776   14.3484 C.ar    1  <0>1       -0.1421
     13 C11         8.1944   12.2876   18.6515 C.ar    1  <0>1       -0.0759
     14 C12         8.1361   11.5569   19.8344 C.ar    1  <0>1       -0.1533
     15 C13         7.4090   12.0383   20.8677 C.ar    1  <0>1       -0.1652
     16 S1          6.7686   13.5649   20.2010 S.2     1  <0>1        0.0528
     17 C14         7.5153   13.4719   18.5825 C.ar    1  <0>1       -0.1703
     18 H1         12.5045   12.2532   11.1637 H       1  <0>1        0.0580
     19 H2         12.7075   10.7674   10.2049 H       1  <0>1        0.1041
     20 H3         11.0753   11.3877   10.5501 H       1  <0>1        0.0580
     21 H4         10.6981   12.7349   12.0821 H       1  <0>1        0.1369
     22 H5          9.3714   13.6565   13.9035 H       1  <0>1        0.1364
     23 H6          8.5033   13.4700   16.2285 H       1  <0>1        0.1400
     24 H7          9.6360   10.0106   18.4950 H       1  <0>1        0.1617
     25 H8         11.7480    9.3386   14.4540 H       1  <0>1        0.1446
     26 H9          8.6642   10.6194   19.9259 H       1  <0>1        0.1396
     27 H10         7.2551   11.6088   21.8467 H       1  <0>1        0.1899
     28 H11         7.4470   14.1696   17.7610 H       1  <0>1        0.1869
@<TRIPOS>BOND
     1     1     2    1
     2     1    18    1
     3     1    19    1
     4     1    20    1
     5     2     3    1
     6     3    12   ar
     7     3     4   ar
     8     4     5   ar
     9     4    21    1
    10     5     6   ar
    11     5    22    1
    12     6    11   ar
    13     6     7   ar
    14     7     8   ar
    15     7    23    1
    16     8     9   ar
    17     8    13    1
    18     9    10   ar
    19     9    24    1
    20    10    11   ar
    21    11    12   ar
    22    12    25    1
    23    13    17   ar
    24    13    14   ar
    25    14    15   ar
    26    14    26    1
    27    15    16   ar
    28    15    27    1
    29    16    17   ar
    30    17    28    1
@<TRIPOS>MOLECULE
ZINC00008077
 39 41 0 0 0
SMALL
USER_CHARGES

@<TRIPOS>ATOM
      1 C1          4.3427   16.5928   21.3743 C.3     1  <0>1        0.0242
      2 O1          4.3797   16.6345   19.9463 O.3     1  <0>1       -0.3078
      3 C2          5.3582   15.9174   19.3332 C.ar    1  <0>1        0.1004
      4 C3          6.2625   15.1890   20.0929 C.ar    1  <0>1       -0.1763
      5 C4          7.2567   14.4601   19.4740 C.ar    1  <0>1       -0.0767
      6 C5          7.3534   14.4549   18.0835 C.ar    1  <0>1       -0.0492
      7 C6          6.4409   15.1824   17.3211 C.ar    1  <0>1       -0.1080
      8 C7          5.4508   15.9145   17.9462 C.ar    1  <0>1        0.0754
      9 F1          4.5683   16.6240   17.2091 F       1  <0>1       -0.1290
     10 C8          8.4217   13.6718   17.4159 C.ar    1  <0>1       -0.0970
     11 C9          8.5180   13.6594   16.0313 C.ar    1  <0>1       -0.0504
     12 C10         9.5502   12.9057   15.4485 C.ar    1  <0>1       -0.0857
     13 C11         9.7111   12.8505   14.0531 C.ar    1  <0>1       -0.1743
     14 C12        10.7199   12.1039   13.5189 C.ar    1  <0>1        0.1269
     15 C13        11.5994   11.3908   14.3482 C.ar    1  <0>1        0.1411
     16 C14        11.4668   11.4262   15.7058 C.ar    1  <0>1       -0.1713
     17 C15        10.4378   12.1855   16.2884 C.ar    1  <0>1        0.1399
     18 N1         10.2910   12.2326   17.6170 N.ar    1  <0>1       -0.4670
     19 C16         9.3387   12.9335   18.1793 C.ar    1  <0>1        0.1396
     20 O2         12.5966   10.6547   13.7915 O.3     1  <0>1       -0.3007
     21 C17        13.4601    9.9502   14.6861 C.3     1  <0>1        0.0214
     22 O3         10.8752   12.0502   12.1695 O.3     1  <0>1       -0.3013
     23 C18         9.9483   12.7977   11.3795 C.3     1  <0>1        0.0222
     24 H1          4.2019   15.5636   21.7042 H       1  <0>1        0.0600
     25 H2          5.2813   16.9771   21.7733 H       1  <0>1        0.0600
     26 H3          3.5166   17.2060   21.7343 H       1  <0>1        0.1055
     27 H4          6.1876   15.1925   21.1703 H       1  <0>1        0.1437
     28 H5          7.9596   13.8934   20.0666 H       1  <0>1        0.1390
     29 H6          6.5107   15.1768   16.2434 H       1  <0>1        0.1450
     30 H7          7.8224   14.2157   15.4205 H       1  <0>1        0.1413
     31 H8          9.0397   13.3969   13.4073 H       1  <0>1        0.1461
     32 H9         12.1509   10.8717   16.3310 H       1  <0>1        0.1517
     33 H10         9.2568   12.9433   19.2561 H       1  <0>1        0.1620
     34 H11        14.2096    9.4043   14.1131 H       1  <0>1        0.1059
     35 H12        13.9551   10.6606   15.3482 H       1  <0>1        0.0603
     36 H13        12.8740    9.2483   15.2793 H       1  <0>1        0.0603
     37 H14        10.1841   12.6682   10.3232 H       1  <0>1        0.1056
     38 H15         8.9365   12.4411   11.5722 H       1  <0>1        0.0587
     39 H16        10.0172   13.8536   11.6404 H       1  <0>1        0.0587
@<TRIPOS>BOND
     1     1     2    1
     2     1    24    1
     3     1    25    1
     4     1    26    1
     5     2     3    1
     6     3     8   ar
     7     3     4   ar
     8     4     5   ar
     9     4    27    1
    10     5     6   ar
    11     5    28    1
    12     6     7   ar
    13     6    10    1
    14     7     8   ar
    15     7    29    1
    16     8     9    1
    17    10    19   ar
    18    10    11   ar
    19    11    12   ar
    20    11    30    1
    21    12    17   ar
    22    12    13   ar
    23    13    14   ar
    24    13    31    1
    25    14    15   ar
    26    14    22    1
    27    15    16   ar
    28    15    20    1
    29    16    17   ar
    30    16    32    1
    31    17    18   ar
    32    18    19   ar
    33    19    33    1
    34    20    21    1
    35    21    34    1
    36    21    35    1
    37    21    36    1
    38    22    23    1
    39    23    37    1
    40    23    38    1
    41    23    39    1
@<TRIPOS>MOLECULE
ZINC00008079
 36 38 0 0 0
SMALL
USER_CHARGES

@<TRIPOS>ATOM
      1 C1         11.7280    8.0277   14.9141 C.3     1  <0>1        0.0227
      2 O1         11.8312    8.9226   13.8048 O.3     1  <0>1       -0.3019
      3 C2         11.1973   10.1200   13.9167 C.ar    1  <0>1        0.1248
      4 C3         10.5048   10.4134   15.0550 C.ar    1  <0>1       -0.1736
      5 C4          9.8493   11.6514   15.1707 C.ar    1  <0>1       -0.0884
      6 C5          9.1273   11.9853   16.3285 C.ar    1  <0>1       -0.0481
      7 C6          8.5041   13.2265   16.3734 C.ar    1  <0>1       -0.0922
      8 C7          8.6093   14.0936   15.2726 C.ar    1  <0>1        0.1438
      9 N1          9.2917   13.7649   14.2054 N.ar    1  <0>1       -0.4714
     10 C8          9.9135   12.5844   14.1039 C.ar    1  <0>1        0.1384
     11 C9         10.6355   12.2510   12.9460 C.ar    1  <0>1       -0.1710
     12 C10        11.2623   11.0416   12.8608 C.ar    1  <0>1        0.1391
     13 O2         11.9593   10.7258   11.7380 O.3     1  <0>1       -0.3012
     14 C11        11.9897   11.7040   10.6968 C.3     1  <0>1        0.0217
     15 C12         7.7315   13.6290   17.5670 C.2     1  <0>1       -0.1032
     16 C13         8.2515   13.8248   18.7666 C.2     1  <0>1       -0.1424
     17 C14         7.1826   14.2266   19.7564 C.3     1  <0>1       -0.1011
     18 C15         5.9806   14.6595   18.8862 C.3     1  <0>1       -0.1249
     19 C16         6.2401   13.8715   17.5818 C.3     1  <0>1       -0.0877
     20 H1         10.6795    7.7885   15.0917 H       1  <0>1        0.0581
     21 H2         12.2774    7.1122   14.6946 H       1  <0>1        0.1052
     22 H3         12.1485    8.4997   15.8021 H       1  <0>1        0.0580
     23 H4         10.4601    9.6981   15.8628 H       1  <0>1        0.1449
     24 H5          9.0590   11.2982   17.1589 H       1  <0>1        0.1384
     25 H6          8.1196   15.0555   15.3099 H       1  <0>1        0.1598
     26 H7         10.6941   12.9500   12.1248 H       1  <0>1        0.1508
     27 H8         10.9731   11.9102   10.3621 H       1  <0>1        0.0600
     28 H9         12.4413   12.6217   11.0735 H       1  <0>1        0.0600
     29 H10        12.5780   11.3262    9.8604 H       1  <0>1        0.1056
     30 H11         9.2984   13.7124   19.0069 H       1  <0>1        0.1257
     31 H12         6.9101   13.3791   20.3853 H       1  <0>1        0.0785
     32 H13         7.5270   15.0597   20.3693 H       1  <0>1        0.0740
     33 H14         5.0385   14.3580   19.3438 H       1  <0>1        0.0749
     34 H15         5.9978   15.7340   18.7033 H       1  <0>1        0.0730
     35 H16         5.9433   14.4631   16.7157 H       1  <0>1        0.0727
     36 H17         5.7017   12.9239   17.5976 H       1  <0>1        0.0770
@<TRIPOS>BOND
     1     1     2    1
     2     1    20    1
     3     1    21    1
     4     1    22    1
     5     2     3    1
     6     3    12   ar
     7     3     4   ar
     8     4     5   ar
     9     4    23    1
    10     5    10   ar
    11     5     6   ar
    12     6     7   ar
    13     6    24    1
    14     7     8   ar
    15     7    15    1
    16     8     9   ar
    17     8    25    1
    18     9    10   ar
    19    10    11   ar
    20    11    12   ar
    21    11    26    1
    22    12    13    1
    23    13    14    1
    24    14    27    1
    25    14    28    1
    26    14    29    1
    27    15    19    1
    28    15    16    2
    29    16    17    1
    30    16    30    1
    31    17    18    1
    32    17    31    1
    33    17    32    1
    34    18    19    1
    35    18    33    1
    36    18    34    1
    37    19    35    1
    38    19    36    1
@<TRIPOS>MOLECULE
ZINC00017525
 26 28 0 0 0
SMALL
USER_CHARGES

@<TRIPOS>ATOM
      1 C1         10.0235   12.6027   13.7708 C.ar    1  <0>1       -0.1134
      2 C2         10.8578   12.5197   14.8705 C.ar    1  <0>1       -0.0997
      3 C3         11.4848   11.3273   15.1750 C.ar    1  <0>1       -0.1175
      4 C4         11.2766   10.2112   14.3758 C.ar    1  <0>1        0.1220
      5 C5         10.4428   10.2992   13.2690 C.ar    1  <0>1       -0.1171
      6 C6          9.8138   11.4927   12.9732 C.ar    1  <0>1       -0.0999
      7 N1         11.9112    9.0002   14.6821 N.ar    1  <0>1       -0.4469
      8 C7         13.2377    8.8250   14.9382 C.ar    1  <0>1        0.2737
      9 N2         13.4824    7.5721   15.1903 N.ar    1  <0>1       -0.4879
     10 C8         12.3312    6.8557   15.1137 C.ar    1  <0>1        0.0636
     11 C9         11.3060    7.7595   14.7869 C.ar    1  <0>1        0.0414
     12 C10        10.0026    7.3077   14.6394 C.ar    1  <0>1       -0.0903
     13 C11         9.7147    5.9711   14.8144 C.ar    1  <0>1       -0.1218
     14 C12        10.7244    5.0698   15.1386 C.ar    1  <0>1        0.1008
     15 C13        12.0268    5.5033   15.2885 C.ar    1  <0>1       -0.0913
     16 O1         10.4266    3.7539   15.3085 O.3     1  <0>1       -0.4941
     17 H1          9.5343   13.5362   13.5348 H       1  <0>1        0.1319
     18 H2         11.0191   13.3881   15.4921 H       1  <0>1        0.1349
     19 H3         12.1360   11.2631   16.0343 H       1  <0>1        0.1318
     20 H4         10.2825    9.4340   12.6428 H       1  <0>1        0.1298
     21 H5          9.1617   11.5607   12.1150 H       1  <0>1        0.1342
     22 H6         13.9781    9.6113   14.9329 H       1  <0>1        0.2176
     23 H7          9.2148    8.0022   14.3874 H       1  <0>1        0.1283
     24 H8          8.6995    5.6211   14.6989 H       1  <0>1        0.1392
     25 H9         12.8068    4.8001   15.5402 H       1  <0>1        0.1388
     26 H10        10.1936    3.5175   16.2168 H       1  <0>1        0.3917
@<TRIPOS>BOND
     1     1     6   ar
     2     1     2   ar
     3     1    17    1
     4     2     3   ar
     5     2    18    1
     6     3     4   ar
     7     3    19    1
     8     4     5   ar
     9     4     7    1
    10     5     6   ar
    11     5    20    1
    12     6    21    1
    13     7    11   ar
    14     7     8   ar
    15     8     9   ar
    16     8    22    1
    17     9    10   ar
    18    10    15   ar
    19    10    11   ar
    20    11    12   ar
    21    12    13   ar
    22    12    23    1
    23    13    14   ar
    24    13    24    1
    25    14    15   ar
    26    14    16    1
    27    15    25    1
    28    16    26    1
@<TRIPOS>MOLECULE
ZINC00600761
 48 51 0 0 0
SMALL
USER_CHARGES

@<TRIPOS>ATOM
      1 C1         13.4502   11.3954   12.8452 C.3     1  <0>1       -0.1131
      2 C2         12.2871   11.6709   13.7629 C.ar    1  <0>1       -0.1345
      3 C3         11.7598   12.9454   13.8455 C.ar    1  <0>1       -0.0764
      4 C4         10.6970   13.2032   14.6894 C.ar    1  <0>1       -0.1419
      5 C5         10.1511   12.1794   15.4545 C.ar    1  <0>1        0.1629
      6 C6         10.6748   10.8975   15.3701 C.ar    1  <0>1       -0.1526
      7 C7         11.7426   10.6418   14.5212 C.ar    1  <0>1        0.1849
      8 N1         12.2735    9.3514   14.4335 N.pl3   1  <0>1       -0.6301
      9 C8         12.1314    8.4704   15.4932 C.ar    1  <0>1        0.5647
     10 N2         11.6073    8.9066   16.6297 N.ar    1  <0>1       -0.5530
     11 C9         11.4553    8.0965   17.6650 C.ar    1  <0>1        0.1930
     12 C10        11.8510    6.7750   17.5542 C.ar    1  <0>1       -0.2701
     13 C11        12.4001    6.3439   16.3439 C.ar    1  <0>1        0.2657
     14 N3         12.5279    7.2161   15.3466 N.ar    1  <0>1       -0.5588
     15 C12        12.8394    4.9375   16.1750 C.ar    1  <0>1       -0.1160
     16 C13        13.3890    4.5053   14.9642 C.ar    1  <0>1       -0.0277
     17 C14        13.7840    3.1832   14.8575 C.ar    1  <0>1       -0.1782
     18 C15        13.6238    2.3395   15.9419 C.ar    1  <0>1        0.1168
     19 N4         13.1024    2.7761   17.0720 N.ar    1  <0>1       -0.4846
     20 C16        12.7166    4.0267   17.2223 C.ar    1  <0>1        0.1331
     21 N5          9.0755   12.4414   16.3089 N.am    1  <0>1       -0.6644
     22 C17         8.9146   13.6732   16.8317 C.2     1  <0>1        0.5603
     23 O1          9.7548   14.5302   16.6380 O.2     1  <0>1       -0.5120
     24 C18         7.7167   13.9820   17.6407 C.ar    1  <0>1       -0.1385
     25 C19         6.7473   13.0020   17.8602 C.ar    1  <0>1       -0.0861
     26 C20         5.6342   13.2953   18.6205 C.ar    1  <0>1       -0.1265
     27 C21         5.4718   14.5610   19.1554 C.ar    1  <0>1       -0.0900
     28 C22         6.4263   15.5386   18.9372 C.ar    1  <0>1       -0.1263
     29 C23         7.5469   15.2568   18.1836 C.ar    1  <0>1       -0.0566
     30 H1         13.0773   11.1124   11.8608 H       1  <0>1        0.0702
     31 H2         14.0639   12.2920   12.7573 H       1  <0>1        0.0725
     32 H3         14.0508   10.5827   13.2536 H       1  <0>1        0.0604
     33 H4         12.1822   13.7427   13.2520 H       1  <0>1        0.1303
     34 H5         10.2896   14.2012   14.7544 H       1  <0>1        0.1414
     35 H6         10.2526   10.1003   15.9639 H       1  <0>1        0.1518
     36 H7         12.7414    9.0729   13.6308 H       1  <0>1        0.4247
     37 H8         11.0268    8.4625   18.5863 H       1  <0>1        0.1748
     38 H9         11.7378    6.0928   18.3838 H       1  <0>1        0.1506
     39 H10        13.5021    5.1859   14.1333 H       1  <0>1        0.1467
     40 H11        14.2128    2.8142   13.9375 H       1  <0>1        0.1425
     41 H12        13.9310    1.3072   15.8621 H       1  <0>1        0.1620
     42 H13        12.2976    4.3480   18.1645 H       1  <0>1        0.1625
     43 H14         8.4452   11.7366   16.5253 H       1  <0>1        0.4094
     44 H15         6.8705   12.0150   17.4392 H       1  <0>1        0.1252
     45 H16         4.8854   12.5367   18.7945 H       1  <0>1        0.1309
     46 H17         4.5964   14.7868   19.7461 H       1  <0>1        0.1296
     47 H18         6.2940   16.5243   19.3582 H       1  <0>1        0.1324
     48 H19         8.2912   16.0208   18.0138 H       1  <0>1        0.1380
@<TRIPOS>BOND
     1     1     2    1
     2     1    30    1
     3     1    31    1
     4     1    32    1
     5     2     7   ar
     6     2     3   ar
     7     3     4   ar
     8     3    33    1
     9     4     5   ar
    10     4    34    1
    11     5     6   ar
    12     5    21    1
    13     6     7   ar
    14     6    35    1
    15     7     8    1
    16     8     9    1
    17     8    36    1
    18     9    14   ar
    19     9    10   ar
    20    10    11   ar
    21    11    12   ar
    22    11    37    1
    23    12    13   ar
    24    12    38    1
    25    13    14   ar
    26    13    15    1
    27    15    20   ar
    28    15    16   ar
    29    16    17   ar
    30    16    39    1
    31    17    18   ar
    32    17    40    1
    33    18    19   ar
    34    18    41    1
    35    19    20   ar
    36    20    42    1
    37    21    22   am
    38    21    43    1
    39    22    23    2
    40    22    24    1
    41    24    29   ar
    42    24    25   ar
    43    25    26   ar
    44    25    44    1
    45    26    27   ar
    46    26    45    1
    47    27    28   ar
    48    27    46    1
    49    28    29   ar
    50    28    47    1
    51    29    48    1
@<TRIPOS>MOLECULE
ZINC00601820
 40 43 0 0 0
SMALL
USER_CHARGES

@<TRIPOS>ATOM
      1 C1          8.3465   11.3475   13.8092 C.3     1  <0>1        0.0693
      2 N1          9.2700   10.7068   14.7487 N.ar    1  <0>1       -0.5058
      3 C2          9.5795   11.3324   15.9299 C.ar    1  <0>1        0.4657
      4 C3         10.4633   10.7261   16.8488 C.ar    1  <0>1       -0.2716
      5 C4         11.0460    9.4723   16.5539 C.ar    1  <0>1        0.0285
      6 C5         10.7356    8.8582   15.3704 C.ar    1  <0>1       -0.1597
      7 C6          9.8109    9.5121   14.4418 C.ar    1  <0>1        0.5572
      8 O1          9.5293    8.9727   13.3866 O.2     1  <0>1       -0.5003
      9 C7         11.3301    7.5440   15.0318 C.ar    1  <0>1       -0.0120
     10 C8         12.5371    7.4797   14.3343 C.ar    1  <0>1       -0.0062
     11 C9         13.0883    6.2514   14.0259 C.ar    1  <0>1       -0.1062
     12 C10        12.4413    5.0867   14.3977 C.ar    1  <0>1       -0.0866
     13 C11        11.2421    5.1435   15.0846 C.ar    1  <0>1       -0.1061
     14 C12        10.6827    6.3652   15.4038 C.ar    1  <0>1       -0.0062
     15 Cl1         9.1772    6.4342   16.2654 Cl      1  <0>1       -0.0500
     16 Cl2        13.3469    8.9404   13.8605 Cl      1  <0>1       -0.0501
     17 C13        10.7490   11.3967   18.0474 C.ar    1  <0>1        0.2644
     18 N2         10.1764   12.5649   18.2697 N.ar    1  <0>1       -0.5677
     19 C14         9.3457   13.1032   17.3839 C.ar    1  <0>1        0.6075
     20 N3          9.0455   12.5086   16.2397 N.ar    1  <0>1       -0.5907
     21 N4          8.7738   14.3294   17.6671 N.pl3   1  <0>1       -0.6248
     22 C15         8.9802   14.9242   18.9104 C.ar    1  <0>1        0.2029
     23 C16         9.1142   14.1482   20.0612 C.ar    1  <0>1       -0.1666
     24 C17         9.3217   14.7754   21.2719 C.ar    1  <0>1        0.1183
     25 N5          9.3841   16.0914   21.3504 N.ar    1  <0>1       -0.4967
     26 C18         9.2574   16.8604   20.2852 C.ar    1  <0>1        0.1208
     27 C19         9.0524   16.3111   19.0369 C.ar    1  <0>1       -0.2009
     28 H1          8.2234   10.7133   12.9313 H       1  <0>1        0.1015
     29 H2          8.7491   12.3139   13.5059 H       1  <0>1        0.0806
     30 H3          7.3796   11.4919   14.2916 H       1  <0>1        0.0808
     31 H4         11.7255    9.0058   17.2518 H       1  <0>1        0.1520
     32 H5         14.0245    6.2003   13.4898 H       1  <0>1        0.1441
     33 H6         12.8744    4.1287   14.1503 H       1  <0>1        0.1458
     34 H7         10.7418    4.2304   15.3718 H       1  <0>1        0.1442
     35 H8         11.4236   10.9662   18.7729 H       1  <0>1        0.1903
     36 H9          8.2288   14.7760   17.0003 H       1  <0>1        0.4296
     37 H10         9.0601   13.0710   20.0047 H       1  <0>1        0.1460
     38 H11         9.4303   14.1822   22.1680 H       1  <0>1        0.1597
     39 H12         9.3147   17.9335   20.3927 H       1  <0>1        0.1605
     40 H13         8.9489   16.9462   18.1695 H       1  <0>1        0.1380
@<TRIPOS>BOND
     1     1     2    1
     2     1    28    1
     3     1    29    1
     4     1    30    1
     5     2     7   ar
     6     2     3   ar
     7     3    20   ar
     8     3     4   ar
     9     4     5   ar
    10     4    17   ar
    11     5     6   ar
    12     5    31    1
    13     6     7   ar
    14     6     9    1
    15     7     8    2
    16     9    14   ar
    17     9    10   ar
    18    10    11   ar
    19    10    16    1
    20    11    12   ar
    21    11    32    1
    22    12    13   ar
    23    12    33    1
    24    13    14   ar
    25    13    34    1
    26    14    15    1
    27    17    18   ar
    28    17    35    1
    29    18    19   ar
    30    19    20   ar
    31    19    21    1
    32    21    22    1
    33    21    36    1
    34    22    27   ar
    35    22    23   ar
    36    23    24   ar
    37    23    37    1
    38    24    25   ar
    39    24    38    1
    40    25    26   ar
    41    26    27   ar
    42    26    39    1
    43    27    40    1
@<TRIPOS>MOLECULE
ZINC00838734
 41 44 0 0 0
SMALL
USER_CHARGES

@<TRIPOS>ATOM
      1 C1          9.1587    7.2193   14.7641 C.3     1  <0>1        0.0700
      2 N1         10.6066    7.0811   14.9395 N.ar    1  <0>1       -0.5062
      3 C2         11.1523    5.8360   15.1249 C.ar    1  <0>1        0.4666
      4 C3         12.5461    5.6849   15.2906 C.ar    1  <0>1       -0.2773
      5 C4         13.3910    6.8181   15.2776 C.ar    1  <0>1        0.0314
      6 C5         12.8369    8.0570   15.0972 C.ar    1  <0>1       -0.1644
      7 C6         11.3879    8.1781   14.9228 C.ar    1  <0>1        0.5577
      8 O1         10.8866    9.2766   14.7614 O.2     1  <0>1       -0.5028
      9 C7         13.6954    9.2643   15.0792 C.ar    1  <0>1       -0.0100
     10 C8         13.9626    9.9520   16.2636 C.ar    1  <0>1       -0.0065
     11 C9         14.7680   11.0738   16.2407 C.ar    1  <0>1       -0.1064
     12 C10        15.3005   11.5223   15.0453 C.ar    1  <0>1       -0.0874
     13 C11        15.0352   10.8482   13.8669 C.ar    1  <0>1       -0.1064
     14 C12        14.2357    9.7221   13.8768 C.ar    1  <0>1       -0.0065
     15 Cl1        13.9032    8.8783   12.3965 Cl      1  <0>1       -0.0502
     16 Cl2        13.2889    9.3953   17.7637 Cl      1  <0>1       -0.0503
     17 C13        13.0643    4.3938   15.4719 C.ar    1  <0>1        0.2641
     18 N2         12.2284    3.3724   15.4753 N.ar    1  <0>1       -0.5672
     19 C14        10.9224    3.5518   15.3114 C.ar    1  <0>1        0.6086
     20 N3         10.3871    4.7504   15.1374 N.ar    1  <0>1       -0.5951
     21 N4         10.0922    2.4474   15.3233 N.pl3   1  <0>1       -0.6261
     22 C15        10.6390    1.1625   15.3892 C.ar    1  <0>1        0.1544
     23 C16        11.8500    0.8886   14.7665 C.ar    1  <0>1       -0.1097
     24 C17        12.3901   -0.3805   14.8381 C.ar    1  <0>1       -0.1005
     25 C18        11.7214   -1.3806   15.5199 C.ar    1  <0>1       -0.1327
     26 C19        10.5127   -1.1128   16.1362 C.ar    1  <0>1       -0.0995
     27 C20         9.9698    0.1554   16.0729 C.ar    1  <0>1       -0.1436
     28 H1          8.9072    8.2721   14.6358 H       1  <0>1        0.1007
     29 H2          8.6472    6.8281   15.6435 H       1  <0>1        0.0801
     30 H3          8.8446    6.6607   13.8825 H       1  <0>1        0.0803
     31 H4         14.4575    6.7082   15.4076 H       1  <0>1        0.1507
     32 H5         14.9792   11.6043   17.1574 H       1  <0>1        0.1438
     33 H6         15.9257   12.4027   15.0321 H       1  <0>1        0.1454
     34 H7         15.4540   11.2036   12.9369 H       1  <0>1        0.1438
     35 H8         14.1247    4.2390   15.6062 H       1  <0>1        0.1883
     36 H9          9.1299    2.5636   15.2859 H       1  <0>1        0.4264
     37 H10        12.3707    1.6682   14.2304 H       1  <0>1        0.1341
     38 H11        13.3336   -0.5931   14.3575 H       1  <0>1        0.1262
     39 H12        12.1439   -2.3733   15.5709 H       1  <0>1        0.1239
     40 H13         9.9932   -1.8962   16.6678 H       1  <0>1        0.1271
     41 H14         9.0256    0.3639   16.5541 H       1  <0>1        0.1251
@<TRIPOS>BOND
     1     1     2    1
     2     1    28    1
     3     1    29    1
     4     1    30    1
     5     2     7   ar
     6     2     3   ar
     7     3    20   ar
     8     3     4   ar
     9     4     5   ar
    10     4    17   ar
    11     5     6   ar
    12     5    31    1
    13     6     7   ar
    14     6     9    1
    15     7     8    2
    16     9    14   ar
    17     9    10   ar
    18    10    11   ar
    19    10    16    1
    20    11    12   ar
    21    11    32    1
    22    12    13   ar
    23    12    33    1
    24    13    14   ar
    25    13    34    1
    26    14    15    1
    27    17    18   ar
    28    17    35    1
    29    18    19   ar
    30    19    20   ar
    31    19    21    1
    32    21    22    1
    33    21    36    1
    34    22    27   ar
    35    22    23   ar
    36    23    24   ar
    37    23    37    1
    38    24    25   ar
    39    24    38    1
    40    25    26   ar
    41    25    39    1
    42    26    27   ar
    43    26    40    1
    44    27    41    1
@<TRIPOS>MOLECULE
ZINC01488976
 40 43 0 0 0
SMALL
USER_CHARGES

@<TRIPOS>ATOM
      1 C1          6.6703   15.4510   20.0404 C.ar    1  <0>1       -0.0871
      2 C2          6.2239   14.7240   18.9394 C.ar    1  <0>1       -0.1016
      3 C3          7.0981   14.2622   17.9998 C.ar    1  <0>1       -0.0886
      4 C4          8.4639   14.5276   18.1432 C.ar    1  <0>1       -0.1031
      5 C5          8.9203   15.2642   19.2672 C.ar    1  <0>1       -0.0372
      6 C6          7.9948   15.7238   20.2132 C.ar    1  <0>1       -0.0990
      7 C7         10.3024   15.5046   19.3758 C.ar    1  <0>1        0.0710
      8 N1         11.1064   15.0397   18.4473 N.ar    1  <0>1       -0.2120
      9 N2         10.7027   14.3700   17.4328 N.ar    1  <0>1       -0.3138
     10 C8          9.4318   14.0780   17.2165 C.ar    1  <0>1        0.3591
     11 N3          9.0550   13.3498   16.0994 N.pl3   1  <0>1       -0.6405
     12 C9         10.0299   12.8130   15.2533 C.ar    1  <0>1        0.1751
     13 C10         9.7856   12.7060   13.8898 C.ar    1  <0>1       -0.1345
     14 C11        10.7501   12.1760   13.0558 C.ar    1  <0>1       -0.0746
     15 C12        11.9598   11.7513   13.5766 C.ar    1  <0>1       -0.0505
     16 C13        12.2067   11.8565   14.9351 C.ar    1  <0>1       -0.0063
     17 C14        11.2445   12.3864   15.7743 C.ar    1  <0>1       -0.0995
     18 Cl1        13.7257   11.3232   15.5848 Cl      1  <0>1       -0.0401
     19 Cl2        13.1703   11.0860   12.5249 Cl      1  <0>1       -0.0472
     20 C15        10.8528   16.2846   20.5419 C.3     1  <0>1       -0.0238
     21 C16        10.8847   17.7508   20.1953 C.ar    1  <0>1       -0.0367
     22 C17        12.0034   18.3158   19.6023 C.ar    1  <0>1       -0.1569
     23 C18        11.9946   19.6632   19.2949 C.ar    1  <0>1        0.1009
     24 N4         10.9430   20.4104   19.5679 N.ar    1  <0>1       -0.4854
     25 C19         9.8638   19.9081   20.1354 C.ar    1  <0>1        0.0993
     26 C20         9.7981   18.5681   20.4671 C.ar    1  <0>1       -0.1703
     27 H1          5.9556   15.8047   20.7688 H       1  <0>1        0.1368
     28 H2          5.1687   14.5230   18.8277 H       1  <0>1        0.1360
     29 H3          6.7386   13.6997   17.1508 H       1  <0>1        0.1319
     30 H4          8.3276   16.2886   21.0714 H       1  <0>1        0.1415
     31 H5          8.1147   13.2124   15.9045 H       1  <0>1        0.4226
     32 H6          8.8416   13.0368   13.4825 H       1  <0>1        0.1411
     33 H7         10.5600   12.0925   11.9960 H       1  <0>1        0.1481
     34 H8         11.4387   12.4725   16.8332 H       1  <0>1        0.1559
     35 H9         10.2171   16.1311   21.4141 H       1  <0>1        0.0980
     36 H10        11.8632   15.9416   20.7639 H       1  <0>1        0.1051
     37 H11        12.8695   17.7099   19.3804 H       1  <0>1        0.1399
     38 H12        12.8608   20.1101   18.8298 H       1  <0>1        0.1574
     39 H13         9.0218   20.5515   20.3438 H       1  <0>1        0.1559
     40 H14         8.9118   18.1627   20.9324 H       1  <0>1        0.1331
@<TRIPOS>BOND
     1     1     6   ar
     2     1     2   ar
     3     1    27    1
     4     2     3   ar
     5     2    28    1
     6     3     4   ar
     7     3    29    1
     8     4    10   ar
     9     4     5   ar
    10     5     6   ar
    11     5     7   ar
    12     6    30    1
    13     7     8   ar
    14     7    20    1
    15     8     9   ar
    16     9    10   ar
    17    10    11    1
    18    11    12    1
    19    11    31    1
    20    12    17   ar
    21    12    13   ar
    22    13    14   ar
    23    13    32    1
    24    14    15   ar
    25    14    33    1
    26    15    16   ar
    27    15    19    1
    28    16    17   ar
    29    16    18    1
    30    17    34    1
    31    20    21    1
    32    20    35    1
    33    20    36    1
    34    21    26   ar
    35    21    22   ar
    36    22    23   ar
    37    22    37    1
    38    23    24   ar
    39    23    38    1
    40    24    25   ar
    41    25    26   ar
    42    25    39    1
    43    26    40    1
@<TRIPOS>MOLECULE
ZINC02047503
 45 48 0 0 0
SMALL
USER_CHARGES

@<TRIPOS>ATOM
      1 C1         12.3747    9.7402   14.0732 C.3     1  <0>1        0.0699
      2 N1         11.7642    9.0215   15.1943 N.ar    1  <0>1       -0.5062
      3 C2         10.8033    9.6391   15.9543 C.ar    1  <0>1        0.4668
      4 C3         10.2016    8.9588   17.0352 C.ar    1  <0>1       -0.2772
      5 C4         10.5926    7.6374   17.3504 C.ar    1  <0>1        0.0314
      6 C5         11.5560    7.0311   16.5895 C.ar    1  <0>1       -0.1643
      7 C6         12.1560    7.7631   15.4720 C.ar    1  <0>1        0.5577
      8 O1         13.0135    7.2309   14.7898 O.2     1  <0>1       -0.5027
      9 C7         11.9879    5.6470   16.8944 C.ar    1  <0>1       -0.0102
     10 C8         13.0484    5.4215   17.7728 C.ar    1  <0>1       -0.0065
     11 C9         13.4426    4.1285   18.0569 C.ar    1  <0>1       -0.1064
     12 C10        12.7957    3.0590   17.4643 C.ar    1  <0>1       -0.0874
     13 C11        11.7471    3.2759   16.5887 C.ar    1  <0>1       -0.1064
     14 C12        11.3396    4.5637   16.3001 C.ar    1  <0>1       -0.0064
     15 Cl1        10.0242    4.8338   15.2000 Cl      1  <0>1       -0.0501
     16 Cl2        13.8665    6.7626   18.5115 Cl      1  <0>1       -0.0503
     17 C13         9.2191    9.6243   17.7837 C.ar    1  <0>1        0.2643
     18 N2          8.8936   10.8575   17.4440 N.ar    1  <0>1       -0.5677
     19 C14         9.4778   11.4650   16.4171 C.ar    1  <0>1        0.6091
     20 N3         10.4098   10.8781   15.6820 N.ar    1  <0>1       -0.5948
     21 N4          9.0993   12.7567   16.1049 N.pl3   1  <0>1       -0.6255
     22 C15         8.0392   13.3591   16.7888 C.ar    1  <0>1        0.1535
     23 C16         6.9589   12.5944   17.2109 C.ar    1  <0>1       -0.1019
     24 C17         5.9159   13.1916   17.8909 C.ar    1  <0>1       -0.1022
     25 C18         5.9411   14.5513   18.1427 C.ar    1  <0>1       -0.1107
     26 C19         7.0122   15.3163   17.7190 C.ar    1  <0>1       -0.0740
     27 C20         8.0611   14.7242   17.0429 C.ar    1  <0>1       -0.1226
     28 C21         7.0348   16.7977   17.9947 C.3     1  <0>1        0.1166
     29 O2          6.4157   17.4935   16.9109 O.3     1  <0>1       -0.5676
     30 H1         13.1139    9.1007   13.5909 H       1  <0>1        0.1008
     31 H2         12.8608   10.6433   14.4421 H       1  <0>1        0.0801
     32 H3         11.6034   10.0114   13.3523 H       1  <0>1        0.0804
     33 H4         10.1380    7.1139   18.1784 H       1  <0>1        0.1507
     34 H5         14.2604    3.9524   18.7400 H       1  <0>1        0.1438
     35 H6         13.1111    2.0502   17.6862 H       1  <0>1        0.1454
     36 H7         11.2463    2.4365   16.1293 H       1  <0>1        0.1438
     37 H8          8.7395    9.1380   18.6202 H       1  <0>1        0.1884
     38 H9          9.5690   13.2454   15.4111 H       1  <0>1        0.4268
     39 H10         6.9367   11.5333   17.0110 H       1  <0>1        0.1360
     40 H11         5.0777   12.5970   18.2228 H       1  <0>1        0.1294
     41 H12         5.1223   15.0167   18.6711 H       1  <0>1        0.1250
     42 H13         8.8973   15.3224   16.7120 H       1  <0>1        0.1259
     43 H14         6.4913   17.0040   18.9167 H       1  <0>1        0.0579
     44 H15         8.0671   17.1321   18.0988 H       1  <0>1        0.0551
     45 H16         6.3947   18.4540   17.0208 H       1  <0>1        0.3824
@<TRIPOS>BOND
     1     1     2    1
     2     1    30    1
     3     1    31    1
     4     1    32    1
     5     2     7   ar
     6     2     3   ar
     7     3    20   ar
     8     3     4   ar
     9     4     5   ar
    10     4    17   ar
    11     5     6   ar
    12     5    33    1
    13     6     7   ar
    14     6     9    1
    15     7     8    2
    16     9    14   ar
    17     9    10   ar
    18    10    11   ar
    19    10    16    1
    20    11    12   ar
    21    11    34    1
    22    12    13   ar
    23    12    35    1
    24    13    14   ar
    25    13    36    1
    26    14    15    1
    27    17    18   ar
    28    17    37    1
    29    18    19   ar
    30    19    20   ar
    31    19    21    1
    32    21    22    1
    33    21    38    1
    34    22    27   ar
    35    22    23   ar
    36    23    24   ar
    37    23    39    1
    38    24    25   ar
    39    24    40    1
    40    25    26   ar
    41    25    41    1
    42    26    27   ar
    43    26    28    1
    44    27    42    1
    45    28    29    1
    46    28    43    1
    47    28    44    1
    48    29    45    1
@<TRIPOS>MOLECULE
ZINC03815223
 45 48 0 0 0
SMALL
USER_CHARGES

@<TRIPOS>ATOM
      1 C1         13.0300    8.4741   14.5233 C.3     1  <0>1        0.0697
      2 N1         12.7615    7.1617   15.1167 N.ar    1  <0>1       -0.5058
      3 C2         13.8088    6.3672   15.5098 C.ar    1  <0>1        0.4664
      4 C3         13.5675    5.0999   16.0831 C.ar    1  <0>1       -0.2759
      5 C4         12.2426    4.6387   16.2575 C.ar    1  <0>1        0.0305
      6 C5         11.2041    5.4386   15.8627 C.ar    1  <0>1       -0.1636
      7 C6         11.4893    6.7475   15.2709 C.ar    1  <0>1        0.5568
      8 O1         10.5711    7.4655   14.9169 O.2     1  <0>1       -0.5013
      9 C7          9.8042    4.9839   16.0321 C.ar    1  <0>1       -0.0102
     10 C8          9.1707    4.2714   15.0131 C.ar    1  <0>1       -0.0065
     11 C9          7.8670    3.8466   15.1791 C.ar    1  <0>1       -0.1064
     12 C10         7.1861    4.1348   16.3482 C.ar    1  <0>1       -0.0874
     13 C11         7.8066    4.8448   17.3602 C.ar    1  <0>1       -0.1064
     14 C12         9.1116    5.2712   17.2089 C.ar    1  <0>1       -0.0065
     15 Cl1         9.8882    6.1632   18.4796 Cl      1  <0>1       -0.0502
     16 Cl2        10.0212    3.9149   13.5423 Cl      1  <0>1       -0.0501
     17 C13        14.6663    4.3186   16.4711 C.ar    1  <0>1        0.2641
     18 N2         15.8811    4.7978   16.2795 N.ar    1  <0>1       -0.5651
     19 C14        16.0703    5.9977   15.7416 C.ar    1  <0>1        0.6102
     20 N3         15.0654    6.7708   15.3599 N.ar    1  <0>1       -0.5951
     21 N4         17.3633    6.4533   15.5689 N.pl3   1  <0>1       -0.6248
     22 C15        18.4382    5.7118   16.0679 C.ar    1  <0>1        0.1960
     23 C16        18.2958    4.9849   17.2437 C.ar    1  <0>1       -0.1458
     24 C17        19.3577    4.2521   17.7364 C.ar    1  <0>1       -0.0599
     25 C18        20.5625    4.2351   17.0592 C.ar    1  <0>1       -0.2207
     26 C19        20.7122    4.9632   15.8873 C.ar    1  <0>1        0.1477
     27 C20        19.6489    5.7001   15.3895 C.ar    1  <0>1       -0.1789
     28 O2         21.8989    4.9493   15.2251 O.3     1  <0>1       -0.3170
     29 C21        22.9510    4.1685   15.7956 C.3     1  <0>1        0.0273
     30 H1         13.1228    8.3720   13.4422 H       1  <0>1        0.0747
     31 H2         12.2088    9.1524   14.7551 H       1  <0>1        0.0923
     32 H3         13.9580    8.8743   14.9315 H       1  <0>1        0.0953
     33 H4         12.0526    3.6700   16.6957 H       1  <0>1        0.1508
     34 H5          7.3769    3.2915   14.3929 H       1  <0>1        0.1438
     35 H6          6.1653    3.8043   16.4713 H       1  <0>1        0.1454
     36 H7          7.2695    5.0667   18.2705 H       1  <0>1        0.1438
     37 H8         14.5214    3.3438   16.9128 H       1  <0>1        0.1886
     38 H9         17.5252    7.2876   15.1014 H       1  <0>1        0.4279
     39 H10        17.3543    4.9934   17.7729 H       1  <0>1        0.1370
     40 H11        19.2452    3.6875   18.6502 H       1  <0>1        0.1300
     41 H12        21.3897    3.6575   17.4445 H       1  <0>1        0.1296
     42 H13        19.7622    6.2637   14.4752 H       1  <0>1        0.1338
     43 H14        23.8401    4.2443   15.1696 H       1  <0>1        0.1014
     44 H15        22.6377    3.1262   15.8571 H       1  <0>1        0.0573
     45 H16        23.1777    4.5393   16.7951 H       1  <0>1        0.0572
@<TRIPOS>BOND
     1     1     2    1
     2     1    30    1
     3     1    31    1
     4     1    32    1
     5     2     7   ar
     6     2     3   ar
     7     3    20   ar
     8     3     4   ar
     9     4     5   ar
    10     4    17   ar
    11     5     6   ar
    12     5    33    1
    13     6     7   ar
    14     6     9    1
    15     7     8    2
    16     9    14   ar
    17     9    10   ar
    18    10    11   ar
    19    10    16    1
    20    11    12   ar
    21    11    34    1
    22    12    13   ar
    23    12    35    1
    24    13    14   ar
    25    13    36    1
    26    14    15    1
    27    17    18   ar
    28    17    37    1
    29    18    19   ar
    30    19    20   ar
    31    19    21    1
    32    21    22    1
    33    21    38    1
    34    22    27   ar
    35    22    23   ar
    36    23    24   ar
    37    23    39    1
    38    24    25   ar
    39    24    40    1
    40    25    26   ar
    41    25    41    1
    42    26    27   ar
    43    26    28    1
    44    27    42    1
    45    28    29    1
    46    29    43    1
    47    29    44    1
    48    29    45    1
@<TRIPOS>MOLECULE
ZINC03815240
 63 66 0 0 0
SMALL
USER_CHARGES

@<TRIPOS>ATOM
      1 C1         17.7444    2.5339   10.7111 C.3     1  <0>1       -0.1870
      2 C2         16.3924    3.1686   10.3788 C.3     1  <0>1       -0.0162
      3 C3         15.2962    1.0097   10.4008 C.3     1  <0>1       -0.0118
      4 C4         14.8320    1.0755    8.9445 C.3     1  <0>1       -0.1890
      5 C5         15.4350    2.3179   12.4336 C.3     1  <0>1       -0.0017
      6 C6         15.2021    3.7165   13.0085 C.3     1  <0>1        0.0258
      7 O1         13.8552    4.1188   12.7520 O.3     1  <0>1       -0.3284
      8 C7         13.4815    5.3468   13.2010 C.ar    1  <0>1        0.0962
      9 C8         12.1881    5.7996   12.9856 C.ar    1  <0>1       -0.1190
     10 C9         11.8080    7.0468   13.4404 C.ar    1  <0>1       -0.0693
     11 C10        12.7210    7.8477   14.1139 C.ar    1  <0>1        0.1456
     12 C11        14.0154    7.3935   14.3294 C.ar    1  <0>1       -0.1051
     13 C12        14.3939    6.1462   13.8736 C.ar    1  <0>1       -0.1797
     14 N1         12.3366    9.1127   14.5749 N.pl3   1  <0>1       -0.6299
     15 C13        11.0469    9.3217   15.0240 C.ar    1  <0>1        0.6044
     16 N2         10.2211    8.2838   15.1044 N.ar    1  <0>1       -0.5742
     17 C14         8.9795    8.4297   15.5269 C.ar    1  <0>1        0.2632
     18 C15         8.5412    9.7115   15.8936 C.ar    1  <0>1       -0.2686
     19 C16         7.2229    9.9309   16.3541 C.ar    1  <0>1        0.0223
     20 C17         6.8433   11.2000   16.7003 C.ar    1  <0>1       -0.1517
     21 C18         7.8083   12.2955   16.5856 C.ar    1  <0>1        0.5544
     22 O2          7.4792   13.4277   16.8919 O.2     1  <0>1       -0.4939
     23 N3          9.0583   12.0575   16.1437 N.ar    1  <0>1       -0.5055
     24 C19         9.4475   10.7890   15.7946 C.ar    1  <0>1        0.4667
     25 N4         10.6808   10.5479   15.3636 N.ar    1  <0>1       -0.5922
     26 C20        10.0119   13.1642   16.0352 C.3     1  <0>1        0.0688
     27 C21         5.4685   11.4626   17.1860 C.ar    1  <0>1       -0.0161
     28 C22         4.4574   11.7930   16.2829 C.ar    1  <0>1       -0.0058
     29 C23         3.1769   12.0324   16.7419 C.ar    1  <0>1       -0.1054
     30 C24         2.8979   11.9548   18.0945 C.ar    1  <0>1       -0.0846
     31 C25         3.8969   11.6330   18.9956 C.ar    1  <0>1       -0.1053
     32 C26         5.1805   11.3865   18.5493 C.ar    1  <0>1       -0.0060
     33 Cl1         6.4329   10.9833   19.6819 Cl      1  <0>1       -0.0505
     34 Cl2         4.8069   11.8975   14.5857 Cl      1  <0>1       -0.0510
     35 H1         18.5444    3.1397   10.2856 H       1  <0>1        0.1068
     36 H2         17.8648    2.4810   11.7930 H       1  <0>1        0.0793
     37 H3         17.7870    1.5290   10.2911 H       1  <0>1        0.0822
     38 H4         16.2651    3.2071    9.2969 H       1  <0>1        0.1316
     39 H5         16.3558    4.1793   10.7851 H       1  <0>1        0.1265
     40 H6         16.2984    0.5834   10.4440 H       1  <0>1        0.1326
     41 H7         14.6106    0.3847   10.9729 H       1  <0>1        0.1298
     42 H8         14.8412    0.0738    8.5147 H       1  <0>1        0.1065
     43 H9         13.8204    1.4792    8.9033 H       1  <0>1        0.0812
     44 H10        15.5038    1.7201    8.3777 H       1  <0>1        0.0791
     45 H11        16.4331    1.9747   12.7058 H       1  <0>1        0.1506
     46 H12        14.6917    1.6306   12.8377 H       1  <0>1        0.1410
     47 H13        15.8877    4.4214   12.5382 H       1  <0>1        0.0853
     48 H14        15.3782    3.7012   14.0841 H       1  <0>1        0.1080
     49 H15        11.4783    5.1766   12.4618 H       1  <0>1        0.1368
     50 H16        10.8024    7.4011   13.2684 H       1  <0>1        0.1474
     51 H17        14.7259    8.0156   14.8535 H       1  <0>1        0.1342
     52 H18        15.4007    5.7929   14.0412 H       1  <0>1        0.1308
     53 H19        12.9757    9.8423   14.5791 H       1  <0>1        0.4284
     54 H20         8.3149    7.5808   15.5895 H       1  <0>1        0.1893
     55 H21         6.5256    9.1098   16.4313 H       1  <0>1        0.1521
     56 H22         9.9401   13.6099   15.0430 H       1  <0>1        0.0759
     57 H23         9.7822   13.9171   16.7891 H       1  <0>1        0.0941
     58 H24        11.0233   12.7892   16.1927 H       1  <0>1        0.0949
     59 H25         2.3925   12.2841   16.0435 H       1  <0>1        0.1450
     60 H26         1.8959   12.1466   18.4487 H       1  <0>1        0.1471
     61 H27         3.6727   11.5747   20.0505 H       1  <0>1        0.1451
     62 N5         15.2902    2.3765   10.9639 N.4     1  <0>1       -0.3969
     63 H28        14.3970    2.8277   10.7344 H       1  <0>1        0.4358
@<TRIPOS>BOND
     1     1     2    1
     2     1    35    1
     3     1    36    1
     4     1    37    1
     5     2    38    1
     6     2    39    1
     7     2    62    1
     8     3     4    1
     9     3    40    1
    10     3    41    1
    11     3    62    1
    12     4    42    1
    13     4    43    1
    14     4    44    1
    15     5     6    1
    16     5    45    1
    17     5    46    1
    18     5    62    1
    19     6     7    1
    20     6    47    1
    21     6    48    1
    22     7     8    1
    23     8    13   ar
    24     8     9   ar
    25     9    10   ar
    26     9    49    1
    27    10    11   ar
    28    10    50    1
    29    11    12   ar
    30    11    14    1
    31    12    13   ar
    32    12    51    1
    33    13    52    1
    34    14    15    1
    35    14    53    1
    36    15    25   ar
    37    15    16   ar
    38    16    17   ar
    39    17    18   ar
    40    17    54    1
    41    18    24   ar
    42    18    19   ar
    43    19    20   ar
    44    19    55    1
    45    20    21   ar
    46    20    27    1
    47    21    22    2
    48    21    23   ar
    49    23    24   ar
    50    23    26    1
    51    24    25   ar
    52    26    56    1
    53    26    57    1
    54    26    58    1
    55    27    32   ar
    56    27    28   ar
    57    28    29   ar
    58    28    34    1
    59    29    30   ar
    60    29    59    1
    61    30    31   ar
    62    30    60    1
    63    31    32   ar
    64    31    61    1
    65    32    33    1
    66    62    63    1
@<TRIPOS>MOLECULE
ZINC03815261
 53 56 0 0 0
SMALL
USER_CHARGES

@<TRIPOS>ATOM
      1 C1         12.8720   10.0389   13.3895 C.3     1  <0>1        0.0167
      2 N1         12.4212    8.9336   14.2387 N.ar    1  <0>1       -0.2953
      3 C2         11.5104    9.1720   15.2369 C.ar    1  <0>1        0.1482
      4 C3         11.0620    8.1172   16.0610 C.ar    1  <0>1        0.0365
      5 C4         11.5566    6.8066   15.8712 C.ar    1  <0>1       -0.0366
      6 C5         12.4691    6.5792   14.8762 C.ar    1  <0>1        0.0502
      7 C6         12.9092    7.6948   14.0356 C.ar    1  <0>1        0.2604
      8 O1         13.7206    7.5013   13.1477 O.2     1  <0>1       -0.2670
      9 C7         13.0069    5.2170   14.6522 C.ar    1  <0>1        0.0239
     10 C8         14.1630    4.8024   15.3144 C.ar    1  <0>1        0.0502
     11 C9         14.6562    3.5294   15.1052 C.ar    1  <0>1       -0.0427
     12 C10        14.0127    2.6698   14.2330 C.ar    1  <0>1       -0.0590
     13 C11        12.8692    3.0765   13.5693 C.ar    1  <0>1       -0.0427
     14 C12        12.3627    4.3450   13.7736 C.ar    1  <0>1        0.0502
     15 Cl1        10.9281    4.8538   12.9389 Cl      1  <0>1       -0.0829
     16 Cl2        14.9765    5.8823   16.4035 Cl      1  <0>1       -0.0829
     17 C13        10.1259    8.4025   17.0663 C.ar    1  <0>1        0.0418
     18 N2          9.6988    9.6443   17.1978 N.ar    1  <0>1       -0.2219
     19 C14        10.1394   10.6112   16.4005 C.ar    1  <0>1        0.2214
     20 N3         11.0223   10.3907   15.4385 N.ar    1  <0>1       -0.1961
     21 N4          9.6591   11.8941   16.5818 N.pl3   1  <0>1       -0.2836
     22 C15         8.6428   12.1351   17.5110 C.ar    1  <0>1        0.0336
     23 C16         7.6562   11.1814   17.7267 C.ar    1  <0>1       -0.0402
     24 C17         6.6573   11.4202   18.6500 C.ar    1  <0>1       -0.0568
     25 C18         6.6316   12.6122   19.3505 C.ar    1  <0>1       -0.0472
     26 C19         7.6091   13.5662   19.1341 C.ar    1  <0>1       -0.0568
     27 C20         8.6143   13.3312   18.2167 C.ar    1  <0>1       -0.0402
     28 C21         5.5362   12.8720   20.3523 C.3     1  <0>1       -0.0272
     29 C22         4.3573   13.5527   19.6539 C.3     1  <0>1       -0.0390
     30 C23         3.2452   13.8165   20.6710 C.3     1  <0>1        0.0451
     31 C24         2.0840   14.4870   19.9832 C.2     1  <0>1        0.3047
     32 O2          2.1402   14.7290   18.8008 O.2     1  <0>1       -0.2510
     33 H1         13.5924    9.6668   12.6610 H       1  <0>1        0.0457
     34 H2         13.3423   10.8037   14.0076 H       1  <0>1        0.0457
     35 H3         12.0168   10.4685   12.8679 H       1  <0>1        0.0457
     36 H4         11.2195    5.9969   16.5014 H       1  <0>1        0.0633
     37 H5         15.5484    3.2057   15.6206 H       1  <0>1        0.0632
     38 H6         14.4051    1.6771   14.0692 H       1  <0>1        0.0618
     39 H7         12.3716    2.4006   12.8896 H       1  <0>1        0.0632
     40 H8          9.7628    7.6224   17.7191 H       1  <0>1        0.0838
     41 H9         10.0269   12.6273   16.0642 H       1  <0>1        0.1550
     42 H10         7.6730   10.2523   17.1765 H       1  <0>1        0.0636
     43 H11         5.8926   10.6771   18.8216 H       1  <0>1        0.0621
     44 H12         7.5865   14.4958   19.6834 H       1  <0>1        0.0621
     45 H13         9.3777   14.0765   18.0484 H       1  <0>1        0.0636
     46 H14         5.2064   11.9268   20.7836 H       1  <0>1        0.0313
     47 H15         5.9135   13.5202   21.1432 H       1  <0>1        0.0313
     48 H16         4.6870   14.4980   19.2227 H       1  <0>1        0.0274
     49 H17         3.9801   12.9045   18.8630 H       1  <0>1        0.0274
     50 H18         2.9155   12.8713   21.1023 H       1  <0>1        0.0378
     51 H19         3.6225   14.4647   21.4620 H       1  <0>1        0.0378
     52 O3          0.9873   14.8153   20.6840 O.3     1  <0>1       -0.4806
     53 H           0.9437   14.6276   21.6010 H       1  <0>1        0.2951
@<TRIPOS>BOND
     1     1     2    1
     2     1    33    1
     3     1    34    1
     4     1    35    1
     5     2     7   ar
     6     2     3   ar
     7     3    20   ar
     8     3     4   ar
     9     4     5   ar
    10     4    17   ar
    11     5     6   ar
    12     5    36    1
    13     6     7   ar
    14     6     9    1
    15     7     8    2
    16     9    14   ar
    17     9    10   ar
    18    10    11   ar
    19    10    16    1
    20    11    12   ar
    21    11    37    1
    22    12    13   ar
    23    12    38    1
    24    13    14   ar
    25    13    39    1
    26    14    15    1
    27    17    18   ar
    28    17    40    1
    29    18    19   ar
    30    19    20   ar
    31    19    21    1
    32    21    22    1
    33    21    41    1
    34    22    27   ar
    35    22    23   ar
    36    23    24   ar
    37    23    42    1
    38    24    25   ar
    39    24    43    1
    40    25    26   ar
    41    25    28    1
    42    26    27   ar
    43    26    44    1
    44    27    45    1
    45    28    29    1
    46    28    46    1
    47    28    47    1
    48    29    30    1
    49    29    48    1
    50    29    49    1
    51    30    31    1
    52    30    50    1
    53    30    51    1
    54    31    32    2
    55    31    52    1
    56    52    53    1
@<TRIPOS>MOLECULE
ZINC03815288
 42 45 0 0 0
SMALL
USER_CHARGES

@<TRIPOS>ATOM
      1 C1         10.9924    8.3054   14.5424 C.3     1  <0>1        0.0699
      2 N1         11.0715    6.9762   15.1535 N.ar    1  <0>1       -0.5058
      3 C2         12.2982    6.4314   15.4379 C.ar    1  <0>1        0.4661
      4 C3         12.3920    5.1519   16.0267 C.ar    1  <0>1       -0.2752
      5 C4         11.2208    4.4203   16.3288 C.ar    1  <0>1        0.0304
      6 C5         10.0011    4.9721   16.0419 C.ar    1  <0>1       -0.1632
      7 C6          9.9392    6.3015   15.4307 C.ar    1  <0>1        0.5569
      8 O1          8.8581    6.7998   15.1721 O.2     1  <0>1       -0.5011
      9 C7          8.7550    4.2308   16.3466 C.ar    1  <0>1       -0.0104
     10 C8          8.1936    3.3819   15.3919 C.ar    1  <0>1       -0.0064
     11 C9          7.0339    2.6907   15.6837 C.ar    1  <0>1       -0.1063
     12 C10         6.4241    2.8456   16.9156 C.ar    1  <0>1       -0.0872
     13 C11         6.9730    3.6892   17.8646 C.ar    1  <0>1       -0.1063
     14 C12         8.1347    4.3829   17.5872 C.ar    1  <0>1       -0.0064
     15 Cl1         8.8211    5.4420   18.7791 Cl      1  <0>1       -0.0503
     16 Cl2         8.9539    3.1906   13.8430 Cl      1  <0>1       -0.0501
     17 C13        13.6655    4.6311   16.3009 C.ar    1  <0>1        0.2650
     18 N2         14.7243    5.3563   15.9929 N.ar    1  <0>1       -0.5662
     19 C14        14.5979    6.5594   15.4439 C.ar    1  <0>1        0.6075
     20 N3         13.4179    7.0925   15.1666 N.ar    1  <0>1       -0.5952
     21 N4         15.7396    7.2784   15.1461 N.pl3   1  <0>1       -0.6260
     22 C15        16.9922    6.7932   15.5334 C.ar    1  <0>1        0.1731
     23 C16        18.1065    7.0299   14.7375 C.ar    1  <0>1       -0.1529
     24 C17        19.3437    6.5497   15.1199 C.ar    1  <0>1       -0.0813
     25 C18        19.4772    5.8333   16.2944 C.ar    1  <0>1       -0.1594
     26 C19        18.3670    5.5897   17.0907 C.ar    1  <0>1        0.1254
     27 C20        17.1244    6.0741   16.7130 C.ar    1  <0>1       -0.1379
     28 O2         18.4990    4.8807   18.2426 O.3     1  <0>1       -0.4959
     29 H1         10.9994    8.2072   13.4569 H       1  <0>1        0.0747
     30 H2         10.0711    8.7956   14.8569 H       1  <0>1        0.0924
     31 H3         11.8479    8.9021   14.8589 H       1  <0>1        0.0950
     32 H4         11.2870    3.4411   16.7796 H       1  <0>1        0.1510
     33 H5          6.6001    2.0307   14.9470 H       1  <0>1        0.1439
     34 H6          5.5155    2.3057   17.1374 H       1  <0>1        0.1455
     35 H7          6.4918    3.8060   18.8244 H       1  <0>1        0.1439
     36 H8         13.7772    3.6554   16.7505 H       1  <0>1        0.1887
     37 H9         15.6720    8.1200   14.6683 H       1  <0>1        0.4279
     38 H10        18.0049    7.5894   13.8194 H       1  <0>1        0.1291
     39 H11        20.2085    6.7338   14.4997 H       1  <0>1        0.1331
     40 H12        20.4458    5.4587   16.5904 H       1  <0>1        0.1306
     41 H13        16.2601    5.8890   17.3336 H       1  <0>1        0.1418
     42 H14        18.6908    5.4242   19.0191 H       1  <0>1        0.3917
@<TRIPOS>BOND
     1     1     2    1
     2     1    29    1
     3     1    30    1
     4     1    31    1
     5     2     7   ar
     6     2     3   ar
     7     3    20   ar
     8     3     4   ar
     9     4     5   ar
    10     4    17   ar
    11     5     6   ar
    12     5    32    1
    13     6     7   ar
    14     6     9    1
    15     7     8    2
    16     9    14   ar
    17     9    10   ar
    18    10    11   ar
    19    10    16    1
    20    11    12   ar
    21    11    33    1
    22    12    13   ar
    23    12    34    1
    24    13    14   ar
    25    13    35    1
    26    14    15    1
    27    17    18   ar
    28    17    36    1
    29    18    19   ar
    30    19    20   ar
    31    19    21    1
    32    21    22    1
    33    21    37    1
    34    22    27   ar
    35    22    23   ar
    36    23    24   ar
    37    23    38    1
    38    24    25   ar
    39    24    39    1
    40    25    26   ar
    41    25    40    1
    42    26    27   ar
    43    26    28    1
    44    27    41    1
    45    28    42    1
@<TRIPOS>MOLECULE
ZINC03815289
 73 76 0 0 0
SMALL
USER_CHARGES

@<TRIPOS>ATOM
      1 C1          3.9050    6.5935   14.2245 C.3     1  <0>1       -0.1653
      2 C2          3.7876    7.1640   12.8098 C.3     1  <0>1        0.1875
      3 C3          2.3120    7.2478   12.4145 C.3     1  <0>1       -0.1577
      4 C4          4.5274    6.2521   11.8290 C.3     1  <0>1       -0.1654
      5 N1          4.3799    8.5035   12.7727 N.am    1  <0>1       -0.7322
      6 C5          5.6795    8.6745   13.0859 C.2     1  <0>1        0.6944
      7 O1          6.3604    7.7174   13.3992 O.2     1  <0>1       -0.5077
      8 N2          6.2244    9.9068   13.0518 N.am    1  <0>1       -0.6579
      9 C6          7.5622   10.0829   13.3742 C.ar    1  <0>1        0.4915
     10 C7          8.1168   11.3800   13.3335 C.ar    1  <0>1       -0.1503
     11 C8          9.4543   11.5593   13.6488 C.ar    1  <0>1        0.0442
     12 C9         10.2030   10.4273   14.0103 C.ar    1  <0>1       -0.2852
     13 C10        11.5636   10.5146   14.3512 C.ar    1  <0>1        0.2685
     14 N3         12.2027    9.4087   14.6750 N.ar    1  <0>1       -0.5792
     15 C11        11.5866    8.2286   14.6831 C.ar    1  <0>1        0.5852
     16 N4         10.3120    8.0877   14.3721 N.ar    1  <0>1       -0.5542
     17 C12         9.5772    9.1533   14.0293 C.ar    1  <0>1        0.4293
     18 N5          8.2867    9.0356   13.7113 N.ar    1  <0>1       -0.4750
     19 N6         12.3118    7.1049   15.0313 N.pl3   1  <0>1       -0.7062
     20 C13        13.7291    7.2272   15.3815 C.3     1  <0>1        0.1459
     21 C14        14.2908    5.8458   15.7238 C.3     1  <0>1       -0.1686
     22 C15        15.7709    5.9735   16.0896 C.3     1  <0>1       -0.0008
     23 C16        15.6952    4.1174   17.6433 C.3     1  <0>1       -0.0333
     24 C17        16.2236    2.7054   17.9067 C.3     1  <0>1       -0.0263
     25 C18        18.3023    3.2782   16.8068 C.3     1  <0>1       -0.0268
     26 C19        17.7739    4.6902   16.5435 C.3     1  <0>1       -0.0261
     27 C20        18.2266    1.4220   18.3606 C.3     1  <0>1       -0.0461
     28 C21         7.2771   12.5402   12.9505 C.ar    1  <0>1       -0.0511
     29 C22         6.5846   13.2563   13.9270 C.ar    1  <0>1       -0.0122
     30 C23         5.7992   14.3328   13.5629 C.ar    1  <0>1       -0.1024
     31 C24         5.7034   14.7047   12.2342 C.ar    1  <0>1       -0.0780
     32 C25         6.3917   14.0020   11.2618 C.ar    1  <0>1       -0.1023
     33 C26         7.1804   12.9236   11.6128 C.ar    1  <0>1       -0.0125
     34 Cl1         8.0437   12.0430   10.3909 Cl      1  <0>1       -0.0438
     35 Cl2         6.7032   12.7907   15.5951 Cl      1  <0>1       -0.0442
     36 H1          3.3781    7.2432   14.9232 H       1  <0>1        0.0540
     37 H2          3.4644    5.5969   14.2520 H       1  <0>1        0.0653
     38 H3          4.9563    6.5339   14.5061 H       1  <0>1        0.0787
     39 H4          2.2283    7.6543   11.4065 H       1  <0>1        0.0641
     40 H5          1.8713    6.2512   12.4420 H       1  <0>1        0.0785
     41 H6          1.7849    7.8976   13.1131 H       1  <0>1        0.0641
     42 H7          5.5787    6.1924   12.1106 H       1  <0>1        0.0787
     43 H8          4.0867    5.2554   11.8565 H       1  <0>1        0.0653
     44 H9          4.4437    6.6586   10.8211 H       1  <0>1        0.0541
     45 H10         3.8367    9.2672   12.5226 H       1  <0>1        0.3964
     46 H11         5.6812   10.6706   12.8018 H       1  <0>1        0.4151
     47 H12         9.9059   12.5399   13.6215 H       1  <0>1        0.1552
     48 H13        12.0737   11.4665   14.3484 H       1  <0>1        0.1829
     49 H14        11.8824    6.2352   15.0436 H       1  <0>1        0.4165
     50 H15        14.2776    7.6433   14.5364 H       1  <0>1        0.0797
     51 H16        13.8348    7.8862   16.2432 H       1  <0>1        0.0787
     52 H17        13.7423    5.4298   16.5689 H       1  <0>1        0.0952
     53 H18        14.1851    5.1868   14.8621 H       1  <0>1        0.0997
     54 H19        16.3194    6.3896   15.2446 H       1  <0>1        0.1482
     55 H20        15.8766    6.6326   16.9513 H       1  <0>1        0.1461
     56 H21        15.9467    4.7627   18.4850 H       1  <0>1        0.1581
     57 H22        14.6126    4.0837   17.5214 H       1  <0>1        0.1751
     58 H23        15.9485    2.0536   17.0775 H       1  <0>1        0.1560
     59 H24        15.7908    2.3212   18.8304 H       1  <0>1        0.1754
     60 H25        18.0509    2.6328   15.9652 H       1  <0>1        0.1559
     61 H26        19.3850    3.3119   16.9284 H       1  <0>1        0.1758
     62 H27        18.2068    5.0740   15.6197 H       1  <0>1        0.1760
     63 H28        18.0490    5.3420   17.3727 H       1  <0>1        0.1573
     64 H29        19.3033    1.4954   18.5137 H       1  <0>1        0.1362
     65 H30        17.7544    1.0532   19.2711 H       1  <0>1        0.1361
     66 H31        18.0222    0.7333   17.5408 H       1  <0>1        0.1328
     67 H32         5.2593   14.8854   14.3175 H       1  <0>1        0.1481
     68 H33         5.0881   15.5471   11.9547 H       1  <0>1        0.1504
     69 H34         6.3128   14.2974   10.2260 H       1  <0>1        0.1482
     70 N7         16.3041    4.6294   16.3977 N.4     1  <0>1       -0.4062
     71 H35        16.0713    3.9932   15.6263 H       1  <0>1        0.4383
     72 N8         17.6931    2.7661   18.0525 N.4     1  <0>1       -0.4065
     73 H36        17.9259    3.4023   18.8241 H       1  <0>1        0.4405
@<TRIPOS>BOND
     1     1     2    1
     2     1    36    1
     3     1    37    1
     4     1    38    1
     5     2     3    1
     6     2     4    1
     7     2     5    1
     8     3    39    1
     9     3    40    1
    10     3    41    1
    11     4    42    1
    12     4    43    1
    13     4    44    1
    14     5     6   am
    15     5    45    1
    16     6     7    2
    17     6     8   am
    18     8     9    1
    19     8    46    1
    20     9    18   ar
    21     9    10   ar
    22    10    11   ar
    23    10    28    1
    24    11    12   ar
    25    11    47    1
    26    12    17   ar
    27    12    13   ar
    28    13    14   ar
    29    13    48    1
    30    14    15   ar
    31    15    16   ar
    32    15    19    1
    33    16    17   ar
    34    17    18   ar
    35    19    20    1
    36    19    49    1
    37    20    21    1
    38    20    50    1
    39    20    51    1
    40    21    22    1
    41    21    52    1
    42    21    53    1
    43    22    54    1
    44    22    55    1
    45    22    70    1
    46    23    24    1
    47    23    56    1
    48    23    57    1
    49    23    70    1
    50    24    58    1
    51    24    59    1
    52    24    72    1
    53    25    26    1
    54    25    60    1
    55    25    61    1
    56    25    72    1
    57    26    62    1
    58    26    63    1
    59    26    70    1
    60    27    64    1
    61    27    65    1
    62    27    66    1
    63    27    72    1
    64    28    33   ar
    65    28    29   ar
    66    29    30   ar
    67    29    35    1
    68    30    31   ar
    69    30    67    1
    70    31    32   ar
    71    31    68    1
    72    32    33   ar
    73    32    69    1
    74    33    34    1
    75    70    71    1
    76    72    73    1
@<TRIPOS>MOLECULE
ZINC03815299
 44 47 0 0 0
SMALL
USER_CHARGES

@<TRIPOS>ATOM
      1 C1         13.0298    8.4753   14.5260 C.3     1  <0>1        0.0167
      2 N1         12.7616    7.1618   15.1166 N.ar    1  <0>1       -0.2953
      3 C2         13.8090    6.3643   15.5032 C.ar    1  <0>1        0.1482
      4 C3         13.5676    5.0978   16.0785 C.ar    1  <0>1        0.0365
      5 C4         12.2428    4.6361   16.2518 C.ar    1  <0>1       -0.0366
      6 C5         11.2042    5.4367   15.8584 C.ar    1  <0>1        0.0502
      7 C6         11.4893    6.7470   15.2697 C.ar    1  <0>1        0.2604
      8 O1         10.5710    7.4655   14.9169 O.2     1  <0>1       -0.2670
      9 C7          9.8043    4.9812   16.0262 C.ar    1  <0>1        0.0239
     10 C8          9.1714    4.2708   15.0055 C.ar    1  <0>1        0.0502
     11 C9          7.8676    3.8458   15.1700 C.ar    1  <0>1       -0.0427
     12 C10         7.1864    4.1309   16.3396 C.ar    1  <0>1       -0.0590
     13 C11         7.8064    4.8388   17.3534 C.ar    1  <0>1       -0.0427
     14 C12         9.1113    5.2658   17.2035 C.ar    1  <0>1        0.0502
     15 Cl1         9.8873    6.1552   18.4765 Cl      1  <0>1       -0.0829
     16 Cl2        10.0227    3.9173   13.5344 Cl      1  <0>1       -0.0829
     17 C13        14.6665    4.3160   16.4651 C.ar    1  <0>1        0.0418
     18 N2         15.8811    4.7978   16.2795 N.ar    1  <0>1       -0.2219
     19 C14        16.0703    5.9965   15.7389 C.ar    1  <0>1        0.2214
     20 N3         15.0654    6.7701   15.3581 N.ar    1  <0>1       -0.1961
     21 N4         17.3633    6.4525   15.5673 N.pl3   1  <0>1       -0.2836
     22 C15        18.4387    5.7092   16.0639 C.ar    1  <0>1        0.0344
     23 C16        18.2991    4.9885   17.2446 C.ar    1  <0>1       -0.0404
     24 C17        19.3573    4.2485   17.7373 C.ar    1  <0>1       -0.0592
     25 C18        20.5631    4.2281   17.0663 C.ar    1  <0>1       -0.0477
     26 C19        20.7155    4.9526   15.8825 C.ar    1  <0>1        0.0606
     27 C20        19.6454    5.6956   15.3822 C.ar    1  <0>1       -0.0265
     28 C21        22.0053    4.9330   15.1622 C.2     1  <0>1        0.3369
     29 O2         22.1358    5.5645   14.1327 O.2     1  <0>1       -0.2451
     30 H1         12.0864    8.9616   14.2778 H       1  <0>1        0.0457
     31 H2         13.6242    8.3520   13.6206 H       1  <0>1        0.0457
     32 H3         13.5785    9.0895   15.2400 H       1  <0>1        0.0457
     33 H4         12.0529    3.6667   16.6884 H       1  <0>1        0.0633
     34 H5          7.3776    3.2930   14.3821 H       1  <0>1        0.0632
     35 H6          6.1657    3.7995   16.4617 H       1  <0>1        0.0618
     36 H7          7.2688    5.0584   18.2640 H       1  <0>1        0.0632
     37 H8         14.5215    3.3403   16.9050 H       1  <0>1        0.0838
     38 H9         17.5252    7.2882   15.1022 H       1  <0>1        0.1550
     39 H10        17.3594    5.0041   17.7767 H       1  <0>1        0.0636
     40 H11        19.2414    3.6874   18.6529 H       1  <0>1        0.0618
     41 H12        21.3889    3.6521   17.4570 H       1  <0>1        0.0626
     42 H13        19.7573    6.2583   14.4672 H       1  <0>1        0.0644
     43 O3         23.0368    4.2150   15.6472 O.3     1  <0>1       -0.4771
     44 H          22.9362    3.7279   16.4413 H       1  <0>1        0.2954
@<TRIPOS>BOND
     1     1     2    1
     2     1    30    1
     3     1    31    1
     4     1    32    1
     5     2     7   ar
     6     2     3   ar
     7     3    20   ar
     8     3     4   ar
     9     4     5   ar
    10     4    17   ar
    11     5     6   ar
    12     5    33    1
    13     6     7   ar
    14     6     9    1
    15     7     8    2
    16     9    14   ar
    17     9    10   ar
    18    10    11   ar
    19    10    16    1
    20    11    12   ar
    21    11    34    1
    22    12    13   ar
    23    12    35    1
    24    13    14   ar
    25    13    36    1
    26    14    15    1
    27    17    18   ar
    28    17    37    1
    29    18    19   ar
    30    19    20   ar
    31    19    21    1
    32    21    22    1
    33    21    38    1
    34    22    27   ar
    35    22    23   ar
    36    23    24   ar
    37    23    39    1
    38    24    25   ar
    39    24    40    1
    40    25    26   ar
    41    25    41    1
    42    26    27   ar
    43    26    28    1
    44    27    42    1
    45    28    29    2
    46    28    43    1
    47    43    44    1
@<TRIPOS>MOLECULE
ZINC03815302
 44 47 0 0 0
SMALL
USER_CHARGES

@<TRIPOS>ATOM
      1 C1         11.1993   10.0565   12.9290 C.3     1  <0>1       -0.1625
      2 C2         11.9828   10.3243   14.2156 C.3     1  <0>1        0.0973
      3 N1         11.3274    9.6461   15.3366 N.ar    1  <0>1       -0.5029
      4 C3         10.3659   10.3049   16.0606 C.ar    1  <0>1        0.4682
      5 C4          9.7213    9.6640   17.1407 C.ar    1  <0>1       -0.2780
      6 C5         10.0692    8.3398   17.4924 C.ar    1  <0>1        0.0304
      7 C6         11.0335    7.6923   16.7676 C.ar    1  <0>1       -0.1647
      8 C7         11.6787    8.3840   15.6496 C.ar    1  <0>1        0.5579
      9 O1         12.5373    7.8151   14.9993 O.2     1  <0>1       -0.5013
     10 C8         11.4209    6.3042   17.1113 C.ar    1  <0>1       -0.0096
     11 C9         12.4543    6.0696   18.0192 C.ar    1  <0>1       -0.0066
     12 C10        12.8064    4.7732   18.3402 C.ar    1  <0>1       -0.1065
     13 C11        12.1451    3.7086   17.7547 C.ar    1  <0>1       -0.0876
     14 C12        11.1239    3.9342   16.8493 C.ar    1  <0>1       -0.1065
     15 C13        10.7578    5.2258   16.5244 C.ar    1  <0>1       -0.0066
     16 Cl1         9.4760    5.5069   15.3879 Cl      1  <0>1       -0.0503
     17 Cl2        13.2907    7.4042   18.7491 Cl      1  <0>1       -0.0503
     18 C14         8.7398   10.3710   17.8515 C.ar    1  <0>1        0.2637
     19 N2          8.4555   11.6049   17.4787 N.ar    1  <0>1       -0.5676
     20 C15         9.0795   12.1746   16.4535 C.ar    1  <0>1        0.6082
     21 N3         10.0123   11.5478   15.7531 N.ar    1  <0>1       -0.5949
     22 N4          8.7431   13.4688   16.1057 N.pl3   1  <0>1       -0.6264
     23 C16         7.6839   14.1134   16.7514 C.ar    1  <0>1        0.1548
     24 C17         6.5741   13.3867   17.1634 C.ar    1  <0>1       -0.1097
     25 C18         5.5319   14.0257   17.8059 C.ar    1  <0>1       -0.1006
     26 C19         5.5877   15.3892   18.0299 C.ar    1  <0>1       -0.1329
     27 C20         6.6886   16.1166   17.6160 C.ar    1  <0>1       -0.0995
     28 C21         7.7365   15.4830   16.9777 C.ar    1  <0>1       -0.1438
     29 H1         11.1704    8.9839   12.7378 H       1  <0>1        0.0607
     30 H2         11.6870   10.5612   12.0950 H       1  <0>1        0.0770
     31 H3         10.1825   10.4339   13.0376 H       1  <0>1        0.0596
     32 H4         12.9996    9.9471   14.1070 H       1  <0>1        0.0978
     33 H5         12.0118   11.3971   14.4068 H       1  <0>1        0.1007
     34 H6          9.5816    7.8464   18.3201 H       1  <0>1        0.1500
     35 H7         13.6025    4.5903   19.0466 H       1  <0>1        0.1437
     36 H8         12.4275    2.6968   18.0054 H       1  <0>1        0.1453
     37 H9         10.6116    3.0987   16.3956 H       1  <0>1        0.1436
     38 H10         8.2280    9.9155   18.6863 H       1  <0>1        0.1876
     39 H11         9.2418   13.9301   15.4133 H       1  <0>1        0.4261
     40 H12         6.5281   12.3225   16.9851 H       1  <0>1        0.1341
     41 H13         4.6705   13.4606   18.1301 H       1  <0>1        0.1261
     42 H14         4.7695   15.8871   18.5289 H       1  <0>1        0.1238
     43 H15         6.7291   17.1813   17.7925 H       1  <0>1        0.1269
     44 H16         8.5958   16.0516   16.6544 H       1  <0>1        0.1250
@<TRIPOS>BOND
     1     1     2    1
     2     1    29    1
     3     1    30    1
     4     1    31    1
     5     2     3    1
     6     2    32    1
     7     2    33    1
     8     3     8   ar
     9     3     4   ar
    10     4    21   ar
    11     4     5   ar
    12     5     6   ar
    13     5    18   ar
    14     6     7   ar
    15     6    34    1
    16     7     8   ar
    17     7    10    1
    18     8     9    2
    19    10    15   ar
    20    10    11   ar
    21    11    12   ar
    22    11    17    1
    23    12    13   ar
    24    12    35    1
    25    13    14   ar
    26    13    36    1
    27    14    15   ar
    28    14    37    1
    29    15    16    1
    30    18    19   ar
    31    18    38    1
    32    19    20   ar
    33    20    21   ar
    34    20    22    1
    35    22    23    1
    36    22    39    1
    37    23    28   ar
    38    23    24   ar
    39    24    25   ar
    40    24    40    1
    41    25    26   ar
    42    25    41    1
    43    26    27   ar
    44    26    42    1
    45    27    28   ar
    46    27    43    1
    47    28    44    1
@<TRIPOS>MOLECULE
ZINC03815307
 62 65 0 0 0
SMALL
USER_CHARGES

@<TRIPOS>ATOM
      1 C1          9.3309   10.9002   16.8701 C.3     1  <0>1        0.0696
      2 N1          9.9949   11.5796   15.7549 N.ar    1  <0>1       -0.5066
      3 C2         10.9626   10.9220   15.0384 C.ar    1  <0>1        0.4682
      4 C3         11.6119   11.5622   13.9607 C.ar    1  <0>1       -0.2690
      5 C4         11.2691   12.8881   13.6100 C.ar    1  <0>1        0.0178
      6 C5         10.3023   13.5363   14.3307 C.ar    1  <0>1       -0.1458
      7 C6          9.6487   12.8435   15.4432 C.ar    1  <0>1        0.5529
      8 O1          8.7875   13.4128   16.0897 O.2     1  <0>1       -0.4897
      9 C7          9.9208   14.9265   13.9885 C.ar    1  <0>1       -0.0200
     10 C8         10.5800   16.0014   14.5863 C.ar    1  <0>1       -0.0056
     11 C9         10.2229   17.2948   14.2593 C.ar    1  <0>1       -0.1044
     12 C10         9.2074   17.5260   13.3490 C.ar    1  <0>1       -0.0827
     13 C11         8.5464   16.4649   12.7566 C.ar    1  <0>1       -0.1045
     14 C12         8.8970   15.1666   13.0713 C.ar    1  <0>1       -0.0056
     15 Cl1         8.0655   13.8364   12.3278 Cl      1  <0>1       -0.0520
     16 Cl2        11.8503   15.7133   15.7340 Cl      1  <0>1       -0.0516
     17 C13        12.5959   10.8547   13.2543 C.ar    1  <0>1        0.2644
     18 N2         12.8787    9.6211   13.6292 N.ar    1  <0>1       -0.5871
     19 C14        12.2433    9.0484   14.6456 C.ar    1  <0>1        0.6055
     20 N3         11.3080    9.6758   15.3419 N.ar    1  <0>1       -0.5994
     21 N4         12.5742    7.7536   14.9922 N.pl3   1  <0>1       -0.6990
     22 C15        13.6053    7.0347   14.2397 C.3     1  <0>1        0.1395
     23 C16        13.7772    5.6310   14.8236 C.3     1  <0>1       -0.1350
     24 C17        14.8541    4.8802   14.0378 C.3     1  <0>1       -0.1464
     25 C18        15.0260    3.4765   14.6217 C.3     1  <0>1       -0.0067
     26 C19        15.6256    2.5053   12.4857 C.3     1  <0>1       -0.0328
     27 C20        16.7582    1.8252   11.7129 C.3     1  <0>1       -0.0263
     28 C21        17.5545    0.8191   13.7653 C.3     1  <0>1       -0.0268
     29 C22        16.4219    1.4992   14.5381 C.3     1  <0>1       -0.0263
     30 C23        18.1540   -0.1520   11.6293 C.3     1  <0>1       -0.0462
     31 H1          9.8843   11.0867   17.7906 H       1  <0>1        0.0755
     32 H2          8.3145   11.2801   16.9738 H       1  <0>1        0.0946
     33 H3          9.3000    9.8281   16.6757 H       1  <0>1        0.0932
     34 H4         11.7623   13.3821   12.7859 H       1  <0>1        0.1521
     35 H5         10.7347   18.1276   14.7185 H       1  <0>1        0.1460
     36 H6          8.9291   18.5394   13.0997 H       1  <0>1        0.1484
     37 H7          7.7541   16.6521   12.0469 H       1  <0>1        0.1460
     38 H8         13.1142   11.3112   12.4240 H       1  <0>1        0.1871
     39 H9         12.1240    7.3200   15.7339 H       1  <0>1        0.4172
     40 H10        14.5492    7.5753   14.3092 H       1  <0>1        0.0738
     41 H11        13.3059    6.9592   13.1943 H       1  <0>1        0.0726
     42 H12        14.0766    5.7064   15.8690 H       1  <0>1        0.0865
     43 H13        12.8333    5.0904   14.7541 H       1  <0>1        0.0853
     44 H14        14.5548    4.8046   12.9924 H       1  <0>1        0.0923
     45 H15        15.7981    5.4208   14.1073 H       1  <0>1        0.0968
     46 H16        15.3254    3.5519   15.6670 H       1  <0>1        0.1442
     47 H17        14.0821    2.9358   14.5521 H       1  <0>1        0.1421
     48 H18        14.7492    1.8572   12.4918 H       1  <0>1        0.1570
     49 H19        15.3751    3.4516   12.0062 H       1  <0>1        0.1757
     50 H20        17.6255    2.4847   11.6835 H       1  <0>1        0.1561
     51 H21        16.4281    1.6124   10.6961 H       1  <0>1        0.1754
     52 H22        18.4309    1.4673   13.7591 H       1  <0>1        0.1559
     53 H23        17.8052   -0.1270   14.2450 H       1  <0>1        0.1755
     54 H24        16.7521    1.7120   15.5548 H       1  <0>1        0.1750
     55 H25        15.5546    0.8397   14.5675 H       1  <0>1        0.1563
     56 H26        18.3549   -1.1088   12.1113 H       1  <0>1        0.1362
     57 H27        17.8068   -0.3242   10.6106 H       1  <0>1        0.1363
     58 H28        19.0676    0.4420   11.6062 H       1  <0>1        0.1329
     59 N5         16.0830    2.7712   13.8658 N.4     1  <0>1       -0.4066
     60 H29        16.9206    3.3640   13.8313 H       1  <0>1        0.4382
     61 N6         17.0969    0.5533   12.3850 N.4     1  <0>1       -0.4066
     62 H30        16.2594   -0.0395   12.4194 H       1  <0>1        0.4405
@<TRIPOS>BOND
     1     1     2    1
     2     1    31    1
     3     1    32    1
     4     1    33    1
     5     2     7   ar
     6     2     3   ar
     7     3    20   ar
     8     3     4   ar
     9     4     5   ar
    10     4    17   ar
    11     5     6   ar
    12     5    34    1
    13     6     7   ar
    14     6     9    1
    15     7     8    2
    16     9    14   ar
    17     9    10   ar
    18    10    11   ar
    19    10    16    1
    20    11    12   ar
    21    11    35    1
    22    12    13   ar
    23    12    36    1
    24    13    14   ar
    25    13    37    1
    26    14    15    1
    27    17    18   ar
    28    17    38    1
    29    18    19   ar
    30    19    20   ar
    31    19    21    1
    32    21    22    1
    33    21    39    1
    34    22    23    1
    35    22    40    1
    36    22    41    1
    37    23    24    1
    38    23    42    1
    39    23    43    1
    40    24    25    1
    41    24    44    1
    42    24    45    1
    43    25    46    1
    44    25    47    1
    45    25    59    1
    46    26    27    1
    47    26    48    1
    48    26    49    1
    49    26    59    1
    50    27    50    1
    51    27    51    1
    52    27    61    1
    53    28    29    1
    54    28    52    1
    55    28    53    1
    56    28    61    1
    57    29    54    1
    58    29    55    1
    59    29    59    1
    60    30    56    1
    61    30    57    1
    62    30    58    1
    63    30    61    1
    64    59    60    1
    65    61    62    1
@<TRIPOS>MOLECULE
ZINC03815308
 47 50 0 0 0
SMALL
USER_CHARGES

@<TRIPOS>ATOM
      1 C1         12.9515   11.3831   14.1786 C.3     1  <0>1        0.0167
      2 N1         12.0531   10.2260   14.1908 N.ar    1  <0>1       -0.2953
      3 C2         10.8095   10.3378   14.7598 C.ar    1  <0>1        0.1482
      4 C3          9.9316    9.2325   14.7799 C.ar    1  <0>1        0.0365
      5 C4         10.3273    7.9994   14.2133 C.ar    1  <0>1       -0.0366
      6 C5         11.5698    7.8974   13.6474 C.ar    1  <0>1        0.0502
      7 C6         12.4561    9.0633   13.6433 C.ar    1  <0>1        0.2604
      8 O1         13.5631    8.9812   13.1416 O.2     1  <0>1       -0.2670
      9 C7         12.0142    6.6186   13.0453 C.ar    1  <0>1        0.0239
     10 C8         12.6851    5.6738   13.8226 C.ar    1  <0>1        0.0502
     11 C9         13.0932    4.4822   13.2561 C.ar    1  <0>1       -0.0427
     12 C10        12.8462    4.2282   11.9189 C.ar    1  <0>1       -0.0590
     13 C11        12.1859    5.1626   11.1416 C.ar    1  <0>1       -0.0427
     14 C12        11.7686    6.3564   11.6969 C.ar    1  <0>1        0.0502
     15 Cl1        10.9410    7.5283   10.7194 Cl      1  <0>1       -0.0829
     16 Cl2        13.0013    5.9931   15.4995 Cl      1  <0>1       -0.0829
     17 C13         8.6688    9.3892   15.3709 C.ar    1  <0>1        0.0418
     18 N2          8.3528   10.5634   15.8840 N.ar    1  <0>1       -0.2219
     19 C14         9.2049   11.5819   15.8470 C.ar    1  <0>1        0.2214
     20 N3         10.4049   11.4837   15.2960 N.ar    1  <0>1       -0.1961
     21 N4          8.8227   12.7899   16.3987 N.pl3   1  <0>1       -0.2836
     22 C15         7.6083   12.8924   17.0835 C.ar    1  <0>1        0.0336
     23 C16         7.1310   11.8153   17.8195 C.ar    1  <0>1       -0.0402
     24 C17         5.9307   11.9199   18.4944 C.ar    1  <0>1       -0.0563
     25 C18         5.2041   13.0951   18.4381 C.ar    1  <0>1       -0.0367
     26 C19         5.6737   14.1675   17.7020 C.ar    1  <0>1       -0.0563
     27 C20         6.8759   14.0714   17.0290 C.ar    1  <0>1       -0.0402
     28 C21         3.8944   13.2054   19.1755 C.3     1  <0>1        0.0699
     29 C22         4.1444   13.7216   20.5691 C.2     1  <0>1        0.3091
     30 O2          5.2706   13.9741   20.9267 O.2     1  <0>1       -0.2507
     31 H1         13.5625   11.3784   15.0813 H       1  <0>1        0.0457
     32 H2         13.5977   11.3320   13.3022 H       1  <0>1        0.0457
     33 H3         12.3629   12.2998   14.1430 H       1  <0>1        0.0457
     34 H4          9.6595    7.1507   14.2264 H       1  <0>1        0.0633
     35 H5         13.6093    3.7484   13.8575 H       1  <0>1        0.0632
     36 H6         13.1708    3.2964   11.4798 H       1  <0>1        0.0618
     37 H7         11.9965    4.9584   10.0981 H       1  <0>1        0.0632
     38 H8          7.9701    8.5664   15.4049 H       1  <0>1        0.0838
     39 H9          9.3971   13.5665   16.3108 H       1  <0>1        0.1550
     40 H10         7.6978   10.8972   17.8636 H       1  <0>1        0.0636
     41 H11         5.5593   11.0830   19.0672 H       1  <0>1        0.0621
     42 H12         5.1016   15.0824   17.6565 H       1  <0>1        0.0621
     43 H13         7.2443   14.9108   16.4580 H       1  <0>1        0.0636
     44 H14         3.4247   12.2233   19.2307 H       1  <0>1        0.0426
     45 H15         3.2359   13.8937   18.6457 H       1  <0>1        0.0426
     46 O3          3.1155   13.9062   21.4111 O.3     1  <0>1       -0.4804
     47 H           2.2422   13.7104   21.1338 H       1  <0>1        0.2951
@<TRIPOS>BOND
     1     1     2    1
     2     1    31    1
     3     1    32    1
     4     1    33    1
     5     2     7   ar
     6     2     3   ar
     7     3    20   ar
     8     3     4   ar
     9     4     5   ar
    10     4    17   ar
    11     5     6   ar
    12     5    34    1
    13     6     7   ar
    14     6     9    1
    15     7     8    2
    16     9    14   ar
    17     9    10   ar
    18    10    11   ar
    19    10    16    1
    20    11    12   ar
    21    11    35    1
    22    12    13   ar
    23    12    36    1
    24    13    14   ar
    25    13    37    1
    26    14    15    1
    27    17    18   ar
    28    17    38    1
    29    18    19   ar
    30    19    20   ar
    31    19    21    1
    32    21    22    1
    33    21    39    1
    34    22    27   ar
    35    22    23   ar
    36    23    24   ar
    37    23    40    1
    38    24    25   ar
    39    24    41    1
    40    25    26   ar
    41    25    28    1
    42    26    27   ar
    43    26    42    1
    44    27    43    1
    45    28    29    1
    46    28    44    1
    47    28    45    1
    48    29    30    2
    49    29    46    1
    50    46    47    1
@<TRIPOS>MOLECULE
ZINC03815309
 45 48 0 0 0
SMALL
USER_CHARGES

@<TRIPOS>ATOM
      1 C1         12.3284    9.7166   14.0347 C.3     1  <0>1        0.0701
      2 N1         11.7642    9.0215   15.1943 N.ar    1  <0>1       -0.5061
      3 C2         10.8213    9.6485   15.9692 C.ar    1  <0>1        0.4674
      4 C3         10.2676    8.9928   17.0901 C.ar    1  <0>1       -0.2786
      5 C4         10.6808    7.6828   17.4237 C.ar    1  <0>1        0.0317
      6 C5         11.6219    7.0650   16.6444 C.ar    1  <0>1       -0.1655
      7 C6         12.1760    7.7734   15.4887 C.ar    1  <0>1        0.5571
      8 O1         13.0134    7.2309   14.7898 O.2     1  <0>1       -0.5021
      9 C7         12.0755    5.6921   16.9674 C.ar    1  <0>1       -0.0096
     10 C8         13.1683    5.4958   17.8127 C.ar    1  <0>1       -0.0065
     11 C9         13.5830    4.2132   18.1137 C.ar    1  <0>1       -0.1065
     12 C10        12.9240    3.1248   17.5712 C.ar    1  <0>1       -0.0876
     13 C11        11.8432    3.3124   16.7283 C.ar    1  <0>1       -0.1065
     14 C12        11.4154    4.5897   16.4231 C.ar    1  <0>1       -0.0066
     15 Cl1        10.0596    4.8231   15.3643 Cl      1  <0>1       -0.0504
     16 Cl2        14.0008    6.8606   18.4894 Cl      1  <0>1       -0.0501
     17 C13         9.3059    9.6689   17.8558 C.ar    1  <0>1        0.2652
     18 N2          8.9578   10.8905   17.4975 N.ar    1  <0>1       -0.5689
     19 C14         9.5003   11.4767   16.4357 C.ar    1  <0>1        0.6089
     20 N3         10.4075   10.8770   15.6799 N.ar    1  <0>1       -0.5976
     21 N4          9.0993   12.7565   16.1049 N.pl3   1  <0>1       -0.6231
     22 C15         8.2258   13.4561   16.9464 C.ar    1  <0>1        0.1171
     23 C16         8.2913   13.2742   18.3215 C.ar    1  <0>1       -0.0674
     24 C17         7.4298   13.9648   19.1507 C.ar    1  <0>1       -0.1319
     25 C18         6.4993   14.8404   18.6105 C.ar    1  <0>1        0.1168
     26 C19         6.4333   15.0226   17.2369 C.ar    1  <0>1       -0.1885
     27 C20         7.2938   14.3325   16.4062 C.ar    1  <0>1       -0.1008
     28 O2          5.6513   15.5201   19.4278 O.3     1  <0>1       -0.3168
     29 C21         4.7189   16.4051   18.8037 C.3     1  <0>1        0.0262
     30 H1         13.2130   10.2751   14.3408 H       1  <0>1        0.0744
     31 H2         12.6047    8.9875   13.2730 H       1  <0>1        0.0919
     32 H3         11.5874   10.4044   13.6274 H       1  <0>1        0.0949
     33 H4         10.2601    7.1765   18.2800 H       1  <0>1        0.1503
     34 H5         14.4263    4.0599   18.7707 H       1  <0>1        0.1437
     35 H6         13.2549    2.1240   17.8064 H       1  <0>1        0.1453
     36 H7         11.3333    2.4584   16.3077 H       1  <0>1        0.1436
     37 H8          8.8596    9.1996   18.7201 H       1  <0>1        0.1882
     38 H9          9.4229   13.1706   15.2895 H       1  <0>1        0.4259
     39 H10         9.0189   12.5962   18.7427 H       1  <0>1        0.1418
     40 H11         7.4806   13.8236   20.2203 H       1  <0>1        0.1357
     41 H12         5.7083   15.7043   16.8171 H       1  <0>1        0.1330
     42 H13         7.2419   14.4742   15.3369 H       1  <0>1        0.1289
     43 H14         5.2604   17.1677   18.2440 H       1  <0>1        0.0559
     44 H15         4.0808   15.8402   18.1241 H       1  <0>1        0.0560
     45 H16         4.1042   16.8823   19.5669 H       1  <0>1        0.1010
@<TRIPOS>BOND
     1     1     2    1
     2     1    30    1
     3     1    31    1
     4     1    32    1
     5     2     7   ar
     6     2     3   ar
     7     3    20   ar
     8     3     4   ar
     9     4     5   ar
    10     4    17   ar
    11     5     6   ar
    12     5    33    1
    13     6     7   ar
    14     6     9    1
    15     7     8    2
    16     9    14   ar
    17     9    10   ar
    18    10    11   ar
    19    10    16    1
    20    11    12   ar
    21    11    34    1
    22    12    13   ar
    23    12    35    1
    24    13    14   ar
    25    13    36    1
    26    14    15    1
    27    17    18   ar
    28    17    37    1
    29    18    19   ar
    30    19    20   ar
    31    19    21    1
    32    21    22    1
    33    21    38    1
    34    22    27   ar
    35    22    23   ar
    36    23    24   ar
    37    23    39    1
    38    24    25   ar
    39    24    40    1
    40    25    26   ar
    41    25    28    1
    42    26    27   ar
    43    26    41    1
    44    27    42    1
    45    28    29    1
    46    29    43    1
    47    29    44    1
    48    29    45    1
@<TRIPOS>MOLECULE
ZINC03815350
 43 46 0 0 0
SMALL
USER_CHARGES

@<TRIPOS>ATOM
      1 C1         11.0065    8.1593   13.1728 C.3     1  <0>1       -0.1629
      2 C2         10.8364    7.9992   14.6848 C.3     1  <0>1        0.0967
      3 N1         10.9401    6.5818   15.0405 N.ar    1  <0>1       -0.5025
      4 C3         12.1651    6.0474   15.3507 C.ar    1  <0>1        0.4674
      5 C4         12.2823    4.6836   15.6961 C.ar    1  <0>1       -0.2723
      6 C5         11.1365    3.8561   15.7251 C.ar    1  <0>1        0.0275
      7 C6          9.9184    4.3982   15.4140 C.ar    1  <0>1       -0.1599
      8 C7          9.8318    5.8167   15.0600 C.ar    1  <0>1        0.5573
      9 O1          8.7518    6.3071   14.7824 O.2     1  <0>1       -0.4989
     10 C8          8.6988    3.5572   15.4348 C.ar    1  <0>1       -0.0115
     11 C9          8.2915    2.8848   14.2819 C.ar    1  <0>1       -0.0063
     12 C10         7.1563    2.0987   14.3092 C.ar    1  <0>1       -0.1063
     13 C11         6.4178    1.9853   15.4734 C.ar    1  <0>1       -0.0868
     14 C12         6.8132    2.6534   16.6183 C.ar    1  <0>1       -0.1062
     15 C13         7.9493    3.4386   16.6059 C.ar    1  <0>1       -0.0063
     16 Cl1         8.4435    4.2766   18.0436 Cl      1  <0>1       -0.0501
     17 Cl2         9.2129    3.0315   12.8179 Cl      1  <0>1       -0.0502
     18 C14        13.5531    4.1770   16.0068 C.ar    1  <0>1        0.2640
     19 N2         14.5875    4.9958   15.9638 N.ar    1  <0>1       -0.5681
     20 C15        14.4394    6.2741   15.6345 C.ar    1  <0>1        0.6071
     21 N3         13.2604    6.7988   15.3382 N.ar    1  <0>1       -0.5905
     22 N4         15.5566    7.0879   15.6055 N.pl3   1  <0>1       -0.6250
     23 C16        16.7893    6.5944   16.0286 C.ar    1  <0>1        0.2033
     24 C17        16.8696    5.6578   17.0586 C.ar    1  <0>1       -0.1666
     25 C18        18.1086    5.1912   17.4450 C.ar    1  <0>1        0.1182
     26 N5         19.2084    5.6271   16.8599 N.ar    1  <0>1       -0.4968
     27 C19        19.1744    6.5161   15.8851 C.ar    1  <0>1        0.1208
     28 C20        17.9750    7.0287   15.4370 C.ar    1  <0>1       -0.2011
     29 H1         10.2271    7.5976   12.6580 H       1  <0>1        0.0611
     30 H2         10.9294    9.2139   12.9081 H       1  <0>1        0.0777
     31 H3         11.9842    7.7806   12.8750 H       1  <0>1        0.0593
     32 H4          9.8587    8.3779   14.9827 H       1  <0>1        0.0987
     33 H5         11.6158    8.5609   15.1997 H       1  <0>1        0.1011
     34 H6         11.2208    2.8121   15.9882 H       1  <0>1        0.1514
     35 H7          6.8422    1.5745   13.4187 H       1  <0>1        0.1440
     36 H8          5.5283    1.3729   15.4884 H       1  <0>1        0.1457
     37 H9          6.2323    2.5605   17.5241 H       1  <0>1        0.1440
     38 H10        13.6823    3.1391   16.2760 H       1  <0>1        0.1897
     39 H11        15.4824    8.0023   15.2906 H       1  <0>1        0.4294
     40 H12        15.9737    5.3001   17.5445 H       1  <0>1        0.1459
     41 H13        18.1800    4.4629   18.2393 H       1  <0>1        0.1595
     42 H14        20.0977    6.8468   15.4326 H       1  <0>1        0.1604
     43 H15        17.9543    7.7565   14.6393 H       1  <0>1        0.1378
@<TRIPOS>BOND
     1     1     2    1
     2     1    29    1
     3     1    30    1
     4     1    31    1
     5     2     3    1
     6     2    32    1
     7     2    33    1
     8     3     8   ar
     9     3     4   ar
    10     4    21   ar
    11     4     5   ar
    12     5     6   ar
    13     5    18   ar
    14     6     7   ar
    15     6    34    1
    16     7     8   ar
    17     7    10    1
    18     8     9    2
    19    10    15   ar
    20    10    11   ar
    21    11    12   ar
    22    11    17    1
    23    12    13   ar
    24    12    35    1
    25    13    14   ar
    26    13    36    1
    27    14    15   ar
    28    14    37    1
    29    15    16    1
    30    18    19   ar
    31    18    38    1
    32    19    20   ar
    33    20    21   ar
    34    20    22    1
    35    22    23    1
    36    22    39    1
    37    23    28   ar
    38    23    24   ar
    39    24    25   ar
    40    24    40    1
    41    25    26   ar
    42    25    41    1
    43    26    27   ar
    44    27    28   ar
    45    27    42    1
    46    28    43    1
@<TRIPOS>MOLECULE
ZINC03815354
 40 43 0 0 0
SMALL
USER_CHARGES

@<TRIPOS>ATOM
      1 C1         12.4084    9.7570   14.1034 C.3     1  <0>1        0.0695
      2 N1         11.7642    9.0214   15.1943 N.ar    1  <0>1       -0.5056
      3 C2         10.7830    9.6290   15.9365 C.ar    1  <0>1        0.4670
      4 C3         10.1519    8.9343   16.9909 C.ar    1  <0>1       -0.2742
      5 C4         10.5259    7.6043   17.2908 C.ar    1  <0>1        0.0289
      6 C5         11.5059    7.0063   16.5449 C.ar    1  <0>1       -0.1611
      7 C6         12.1408    7.7555   15.4584 C.ar    1  <0>1        0.5565
      8 O1         13.0135    7.2309   14.7898 O.2     1  <0>1       -0.4997
      9 C7         11.9206    5.6137   16.8345 C.ar    1  <0>1       -0.0113
     10 C8         12.9555    5.3642   17.7368 C.ar    1  <0>1       -0.0062
     11 C9         13.3348    4.0636   18.0053 C.ar    1  <0>1       -0.1063
     12 C10        12.6973    3.0099   17.3751 C.ar    1  <0>1       -0.0869
     13 C11        11.6741    3.2507   16.4761 C.ar    1  <0>1       -0.1062
     14 C12        11.2822    4.5464   16.2019 C.ar    1  <0>1       -0.0064
     15 Cl1         9.9985    4.8464   15.0724 Cl      1  <0>1       -0.0500
     16 Cl2        13.7607    6.6853   18.5242 Cl      1  <0>1       -0.0503
     17 C13         9.1539    9.5920   17.7254 C.ar    1  <0>1        0.2651
     18 N2          8.8489   10.8353   17.4043 N.ar    1  <0>1       -0.5719
     19 C14         9.4609   11.4565   16.4019 C.ar    1  <0>1        0.6081
     20 N3         10.4083   10.8774   15.6806 N.ar    1  <0>1       -0.5935
     21 N4          9.0993   12.7566   16.1049 N.pl3   1  <0>1       -0.6216
     22 C15         8.1864   13.4322   16.9206 C.ar    1  <0>1        0.1068
     23 C16         8.1502   13.1905   18.2921 C.ar    1  <0>1       -0.0682
     24 C17         7.2249   13.8804   19.0575 C.ar    1  <0>1       -0.1505
     25 C18         6.3816   14.7874   18.4425 C.ar    1  <0>1        0.0826
     26 N5          6.4446   14.9976   17.1423 N.ar    1  <0>1       -0.4637
     27 C19         7.3063   14.3586   16.3764 C.ar    1  <0>1        0.0800
     28 H1         13.2794   10.2878   14.4878 H       1  <0>1        0.0751
     29 H2         12.7221    9.0570   13.3289 H       1  <0>1        0.0928
     30 H3         11.7032   10.4732   13.6818 H       1  <0>1        0.0953
     31 H4         10.0457    7.0681   18.0959 H       1  <0>1        0.1513
     32 H5         14.1330    3.8687   18.7062 H       1  <0>1        0.1440
     33 H6         13.0002    1.9949   17.5857 H       1  <0>1        0.1457
     34 H7         11.1806    2.4237   15.9871 H       1  <0>1        0.1441
     35 H8          8.6489    9.0931   18.5394 H       1  <0>1        0.1891
     36 H9          9.4788   13.2007   15.3305 H       1  <0>1        0.4294
     37 H10         8.8242   12.4795   18.7466 H       1  <0>1        0.1461
     38 H11         7.1656   13.7152   20.1232 H       1  <0>1        0.1401
     39 H12         5.6610   15.3312   19.0354 H       1  <0>1        0.1592
     40 H13         7.3284   14.5576   15.3151 H       1  <0>1        0.1572
@<TRIPOS>BOND
     1     1     2    1
     2     1    28    1
     3     1    29    1
     4     1    30    1
     5     2     7   ar
     6     2     3   ar
     7     3    20   ar
     8     3     4   ar
     9     4     5   ar
    10     4    17   ar
    11     5     6   ar
    12     5    31    1
    13     6     7   ar
    14     6     9    1
    15     7     8    2
    16     9    14   ar
    17     9    10   ar
    18    10    11   ar
    19    10    16    1
    20    11    12   ar
    21    11    32    1
    22    12    13   ar
    23    12    33    1
    24    13    14   ar
    25    13    34    1
    26    14    15    1
    27    17    18   ar
    28    17    35    1
    29    18    19   ar
    30    19    20   ar
    31    19    21    1
    32    21    22    1
    33    21    36    1
    34    22    27   ar
    35    22    23   ar
    36    23    24   ar
    37    23    37    1
    38    24    25   ar
    39    24    38    1
    40    25    26   ar
    41    25    39    1
    42    26    27   ar
    43    27    40    1
@<TRIPOS>MOLECULE
ZINC03815368
 51 53 0 0 0
SMALL
USER_CHARGES

@<TRIPOS>ATOM
      1 C1         12.9355   11.4348   11.7433 C.3     1  <0>1       -0.1183
      2 C2         13.5477   11.9132   13.0345 C.ar    1  <0>1       -0.0599
      3 C3         14.8636   12.3282   13.0638 C.ar    1  <0>1       -0.1258
      4 C4         15.4286   12.7618   14.2496 C.ar    1  <0>1       -0.1015
      5 C5         14.6777   12.7876   15.4111 C.ar    1  <0>1       -0.1257
      6 C6         13.3591   12.3809   15.3925 C.ar    1  <0>1       -0.0598
      7 C7         12.7843   11.9429   14.2005 C.ar    1  <0>1       -0.0609
      8 C8         11.3681   11.5047   14.1741 C.ar    1  <0>1       -0.1501
      9 C9         10.3585   12.4187   13.9159 C.ar    1  <0>1        0.0324
     10 C10         9.0347   11.9508   13.9027 C.ar    1  <0>1       -0.2938
     11 C11         7.9475   12.8051   13.6501 C.ar    1  <0>1        0.2630
     12 N1          6.7329   12.2946   13.6541 N.ar    1  <0>1       -0.5712
     13 C12         6.5249   11.0011   13.8907 C.ar    1  <0>1        0.5940
     14 N2          7.5067   10.1538   14.1336 N.ar    1  <0>1       -0.5641
     15 C13         8.7770   10.5768   14.1510 C.ar    1  <0>1        0.4256
     16 N3          9.7864    9.7392   14.3947 N.ar    1  <0>1       -0.4765
     17 C14        11.0368   10.1543   14.4124 C.ar    1  <0>1        0.4710
     18 N4         12.0503    9.2429   14.6709 N.am    1  <0>1       -0.6598
     19 C15        11.7508    7.9490   14.9003 C.2     1  <0>1        0.6903
     20 O1         10.5924    7.5805   14.8807 O.2     1  <0>1       -0.5047
     21 N5         12.7353    7.0636   15.1514 N.am    1  <0>1       -0.7358
     22 C16        12.4096    5.6571   15.4007 C.3     1  <0>1        0.1880
     23 C17        11.6920    5.0758   14.1808 C.3     1  <0>1       -0.1660
     24 C18        13.6982    4.8728   15.6561 C.3     1  <0>1       -0.1554
     25 C19        11.4986    5.5540   16.6254 C.3     1  <0>1       -0.1660
     26 N6          5.2272   10.5263   13.8817 N.pl3   1  <0>1       -0.8116
     27 C20        12.5421   12.4106   16.6584 C.3     1  <0>1       -0.1193
     28 H1         12.4943   12.2801   11.2152 H       1  <0>1        0.0748
     29 H2         13.7072   10.9807   11.1216 H       1  <0>1        0.0694
     30 H3         12.1623   10.6975   11.9591 H       1  <0>1        0.0636
     31 H4         15.4545   12.3104   12.1599 H       1  <0>1        0.1253
     32 H5         16.4602   13.0810   14.2689 H       1  <0>1        0.1248
     33 H6         15.1241   13.1271   16.3340 H       1  <0>1        0.1253
     34 H7         10.5832   13.4585   13.7300 H       1  <0>1        0.1502
     35 H8          8.1044   13.8560   13.4566 H       1  <0>1        0.1798
     36 H9         12.9746    9.5369   14.6866 H       1  <0>1        0.4149
     37 H10        13.6597    7.3575   15.1671 H       1  <0>1        0.3940
     38 H11        12.3412    5.1493   13.3082 H       1  <0>1        0.0525
     39 H12        11.4498    4.0295   14.3663 H       1  <0>1        0.0639
     40 H13        10.7741    5.6346   13.9988 H       1  <0>1        0.0815
     41 H14        14.2095    5.2869   16.5252 H       1  <0>1        0.0622
     42 H15        13.4559    3.8264   15.8416 H       1  <0>1        0.0765
     43 H16        14.3473    4.9462   14.7835 H       1  <0>1        0.0622
     44 H17        10.5805    6.1128   16.4436 H       1  <0>1        0.0815
     45 H18        11.2563    4.5075   16.8109 H       1  <0>1        0.0639
     46 H19        12.0098    5.9681   17.4945 H       1  <0>1        0.0525
     47 H20         5.0531    9.5873   14.0519 H       1  <0>1        0.4182
     48 H21         4.4903   11.1320   13.7054 H       1  <0>1        0.4167
     49 H22        12.6384   11.4559   17.1755 H       1  <0>1        0.0705
     50 H23        12.9017   13.2115   17.3043 H       1  <0>1        0.0707
     51 H24        11.4950   12.5858   16.4111 H       1  <0>1        0.0672
@<TRIPOS>BOND
     1     1     2    1
     2     1    28    1
     3     1    29    1
     4     1    30    1
     5     2     7   ar
     6     2     3   ar
     7     3     4   ar
     8     3    31    1
     9     4     5   ar
    10     4    32    1
    11     5     6   ar
    12     5    33    1
    13     6     7   ar
    14     6    27    1
    15     7     8    1
    16     8    17   ar
    17     8     9   ar
    18     9    10   ar
    19     9    34    1
    20    10    15   ar
    21    10    11   ar
    22    11    12   ar
    23    11    35    1
    24    12    13   ar
    25    13    14   ar
    26    13    26    1
    27    14    15   ar
    28    15    16   ar
    29    16    17   ar
    30    17    18    1
    31    18    19   am
    32    18    36    1
    33    19    20    2
    34    19    21   am
    35    21    22    1
    36    21    37    1
    37    22    23    1
    38    22    24    1
    39    22    25    1
    40    23    38    1
    41    23    39    1
    42    23    40    1
    43    24    41    1
    44    24    42    1
    45    24    43    1
    46    25    44    1
    47    25    45    1
    48    25    46    1
    49    26    47    1
    50    26    48    1
    51    27    49    1
    52    27    50    1
    53    27    51    1
@<TRIPOS>MOLECULE
ZINC03815379
 75 79 0 0 0
SMALL
USER_CHARGES

@<TRIPOS>ATOM
      1 C1         20.3378    3.1181   17.4907 C.3     1  <0>1       -0.0461
      2 C2         19.6916    4.7633   15.8352 C.3     1  <0>1       -0.0268
      3 C3         18.8226    6.0006   15.5979 C.3     1  <0>1       -0.0260
      4 C4         17.1825    5.1485   17.1607 C.3     1  <0>1       -0.0333
      5 C5         18.0515    3.9112   17.3982 C.3     1  <0>1       -0.0263
      6 C6         16.5362    6.7937   15.5052 C.3     1  <0>1       -0.0008
      7 C7         15.0787    6.3293   15.4805 C.3     1  <0>1       -0.1688
      8 C8         14.1689    7.5212   15.1756 C.3     1  <0>1        0.1457
      9 N1         12.7732    7.0766   15.1519 N.pl3   1  <0>1       -0.7057
     10 C9         11.7632    7.9842   14.8945 C.ar    1  <0>1        0.5860
     11 N2         12.0892    9.2556   14.6715 N.ar    1  <0>1       -0.5779
     12 C10        11.1700   10.1660   14.4212 C.ar    1  <0>1        0.2691
     13 C11         9.8225    9.7680   14.3923 C.ar    1  <0>1       -0.2837
     14 C12         8.7851   10.6786   14.1327 C.ar    1  <0>1        0.0458
     15 C13         7.4855   10.1977   14.1241 C.ar    1  <0>1       -0.1488
     16 C14         7.2508    8.8285   14.3730 C.ar    1  <0>1        0.4900
     17 N3          8.2406    7.9947   14.6190 N.ar    1  <0>1       -0.4754
     18 C15         9.5103    8.4044   14.6339 C.ar    1  <0>1        0.4296
     19 N4         10.5157    7.5548   14.8796 N.ar    1  <0>1       -0.5537
     20 N5          5.9481    8.3512   14.3641 N.am    1  <0>1       -0.6545
     21 C16         5.7071    7.0463   14.5998 C.2     1  <0>1        0.6931
     22 O1          6.6310    6.2876   14.8205 O.2     1  <0>1       -0.4948
     23 N6          4.4416    6.5825   14.5911 N.am    1  <0>1       -0.6769
     24 C17         4.1805    5.2520   14.9453 C.ar    1  <0>1        0.1218
     25 C18         4.9617    4.6228   15.9052 C.ar    1  <0>1       -0.0777
     26 C19         4.7035    3.3118   16.2540 C.ar    1  <0>1       -0.1324
     27 C20         3.6640    2.6237   15.6457 C.ar    1  <0>1        0.1174
     28 C21         2.8831    3.2518   14.6865 C.ar    1  <0>1       -0.1872
     29 C22         3.1403    4.5627   14.3367 C.ar    1  <0>1       -0.1001
     30 O2          3.4106    1.3327   15.9893 O.3     1  <0>1       -0.3174
     31 C23         2.3251    0.6850   15.3228 C.3     1  <0>1        0.0254
     32 C24         6.3512   11.1138   13.8553 C.ar    1  <0>1       -0.0525
     33 C25         5.7182   11.7727   14.9093 C.ar    1  <0>1       -0.0124
     34 C26         4.6654   12.6289   14.6517 C.ar    1  <0>1       -0.1019
     35 C27         4.2315   12.8252   13.3532 C.ar    1  <0>1       -0.0775
     36 C28         4.8513   12.1704   12.3042 C.ar    1  <0>1       -0.1020
     37 C29         5.9089   11.3159   12.5480 C.ar    1  <0>1       -0.0127
     38 Cl1         6.6856   10.4951   11.2302 Cl      1  <0>1       -0.0435
     39 Cl2         6.2567   11.5222   16.5405 Cl      1  <0>1       -0.0436
     40 H1         21.3801    3.4240   17.4001 H       1  <0>1        0.1362
     41 H2         20.1491    2.7672   18.5053 H       1  <0>1        0.1361
     42 H3         20.1324    2.3140   16.7841 H       1  <0>1        0.1328
     43 H4         19.4272    3.9895   15.1146 H       1  <0>1        0.1558
     44 H5         20.7421    5.0283   15.7153 H       1  <0>1        0.1757
     45 H6         18.9678    6.3567   14.5780 H       1  <0>1        0.1759
     46 H7         19.1057    6.7841   16.3008 H       1  <0>1        0.1573
     47 H8         17.4469    5.9223   17.8815 H       1  <0>1        0.1581
     48 H9         16.1320    4.8835   17.2804 H       1  <0>1        0.1751
     49 H10        17.7684    3.1276   16.6952 H       1  <0>1        0.1561
     50 H11        17.9064    3.5547   18.4179 H       1  <0>1        0.1755
     51 H12        16.8005    7.2134   14.5347 H       1  <0>1        0.1482
     52 H13        16.6625    7.5537   16.2763 H       1  <0>1        0.1461
     53 H14        14.8144    5.9097   16.4511 H       1  <0>1        0.0954
     54 H15        14.9524    5.5693   14.7095 H       1  <0>1        0.0999
     55 H16        14.4331    7.9409   14.2049 H       1  <0>1        0.0799
     56 H17        14.2951    8.2812   15.9466 H       1  <0>1        0.0790
     57 H18        12.5579    6.1453   15.3168 H       1  <0>1        0.4169
     58 H19        11.4460   11.1946   14.2421 H       1  <0>1        0.1837
     59 H20         8.9939   11.7216   13.9451 H       1  <0>1        0.1565
     60 H21         5.2110    8.9565   14.1881 H       1  <0>1        0.4176
     61 H22         3.7117    7.1698   14.3397 H       1  <0>1        0.4079
     62 H23         5.7712    5.1583   16.3787 H       1  <0>1        0.1414
     63 H24         5.3138    2.8207   16.9975 H       1  <0>1        0.1339
     64 H25         2.0741    2.7155   14.2132 H       1  <0>1        0.1349
     65 H26         2.5321    5.0518   13.5902 H       1  <0>1        0.1303
     66 H27         2.2320   -0.3374   15.6890 H       1  <0>1        0.1024
     67 H28         1.4010    1.2277   15.5215 H       1  <0>1        0.0576
     68 H29         2.5144    0.6706   14.2494 H       1  <0>1        0.0564
     69 H30         4.1775   13.1434   15.4665 H       1  <0>1        0.1485
     70 H31         3.4050   13.4922   13.1574 H       1  <0>1        0.1507
     71 H32         4.5078   12.3278   11.2924 H       1  <0>1        0.1485
     72 N7         19.4702    4.2832   17.2156 N.4     1  <0>1       -0.4065
     73 H33        19.7050    5.0365   17.8727 H       1  <0>1        0.4405
     74 N8         17.4039    5.6285   15.7804 N.4     1  <0>1       -0.4062
     75 H34        17.1692    4.8753   15.1232 H       1  <0>1        0.4384
@<TRIPOS>BOND
     1     1    40    1
     2     1    41    1
     3     1    42    1
     4     1    72    1
     5     2     3    1
     6     2    43    1
     7     2    44    1
     8     2    72    1
     9     3    45    1
    10     3    46    1
    11     3    74    1
    12     4     5    1
    13     4    47    1
    14     4    48    1
    15     4    74    1
    16     5    49    1
    17     5    50    1
    18     5    72    1
    19     6     7    1
    20     6    51    1
    21     6    52    1
    22     6    74    1
    23     7     8    1
    24     7    53    1
    25     7    54    1
    26     8     9    1
    27     8    55    1
    28     8    56    1
    29     9    10    1
    30     9    57    1
    31    10    19   ar
    32    10    11   ar
    33    11    12   ar
    34    12    13   ar
    35    12    58    1
    36    13    18   ar
    37    13    14   ar
    38    14    15   ar
    39    14    59    1
    40    15    16   ar
    41    15    32    1
    42    16    17   ar
    43    16    20    1
    44    17    18   ar
    45    18    19   ar
    46    20    21   am
    47    20    60    1
    48    21    22    2
    49    21    23   am
    50    23    24    1
    51    23    61    1
    52    24    29   ar
    53    24    25   ar
    54    25    26   ar
    55    25    62    1
    56    26    27   ar
    57    26    63    1
    58    27    28   ar
    59    27    30    1
    60    28    29   ar
    61    28    64    1
    62    29    65    1
    63    30    31    1
    64    31    66    1
    65    31    67    1
    66    31    68    1
    67    32    37   ar
    68    32    33   ar
    69    33    34   ar
    70    33    39    1
    71    34    35   ar
    72    34    69    1
    73    35    36   ar
    74    35    70    1
    75    36    37   ar
    76    36    71    1
    77    37    38    1
    78    72    73    1
    79    74    75    1
@<TRIPOS>MOLECULE
ZINC03815405
 77 81 0 0 0
SMALL
USER_CHARGES

@<TRIPOS>ATOM
      1 C1         17.2526   -0.5437   15.8566 C.3     1  <0>1       -0.0461
      2 C2         16.5094    0.7694   13.9623 C.3     1  <0>1       -0.0268
      3 C3         16.4016    2.1942   13.4138 C.3     1  <0>1       -0.0261
      4 C4         16.1009    3.0373   15.6626 C.3     1  <0>1       -0.0333
      5 C5         16.2087    1.6127   16.2112 C.3     1  <0>1       -0.0262
      6 C6         15.3577    4.3504   13.7683 C.3     1  <0>1       -0.0008
      7 C7         14.2751    5.0695   14.5758 C.3     1  <0>1       -0.1686
      8 C8         14.0774    6.4812   14.0200 C.3     1  <0>1        0.1459
      9 N1         13.0409    7.1697   14.7932 N.pl3   1  <0>1       -0.7061
     10 C9         12.6874    8.4669   14.4734 C.ar    1  <0>1        0.5853
     11 N2         13.3058    9.0649   13.4575 N.ar    1  <0>1       -0.5789
     12 C10        13.0118   10.3004   13.1063 C.ar    1  <0>1        0.2686
     13 C11        12.0210   10.9855   13.8305 C.ar    1  <0>1       -0.2849
     14 C12        11.6513   12.3039   13.5178 C.ar    1  <0>1        0.0444
     15 C13        10.6649   12.9014   14.2859 C.ar    1  <0>1       -0.1500
     16 C14        10.0729   12.1759   15.3417 C.ar    1  <0>1        0.4912
     17 N3         10.4406   10.9417   15.6190 N.ar    1  <0>1       -0.4757
     18 C15        11.3814   10.3177   14.9075 C.ar    1  <0>1        0.4293
     19 N4         11.7505    9.0614   15.1874 N.ar    1  <0>1       -0.5543
     20 N5          9.0855   12.7779   16.1085 N.am    1  <0>1       -0.6573
     21 C16         8.5102   12.0985   17.1204 C.2     1  <0>1        0.6932
     22 O1          8.8564   10.9584   17.3614 O.2     1  <0>1       -0.5118
     23 N6          7.5511   12.6833   17.8652 N.am    1  <0>1       -0.7355
     24 C17         6.9257   11.9449   18.9651 C.3     1  <0>1        0.1651
     25 C18         6.3814   12.9333   19.9984 C.3     1  <0>1       -0.1274
     26 C19         5.7283   12.1622   21.1471 C.3     1  <0>1       -0.1158
     27 C20         4.5802   11.3103   20.6018 C.3     1  <0>1       -0.1242
     28 C21         5.1246   10.3220   19.5686 C.3     1  <0>1       -0.1163
     29 C22         5.7777   11.0932   18.4198 C.3     1  <0>1       -0.1300
     30 C23        10.2346   14.2913   14.0007 C.ar    1  <0>1       -0.0510
     31 C24        10.8690   15.3635   14.6280 C.ar    1  <0>1       -0.0125
     32 C25        10.4662   16.6563   14.3546 C.ar    1  <0>1       -0.1022
     33 C26         9.4300   16.8882   13.4684 C.ar    1  <0>1       -0.0780
     34 C27         8.7933   15.8289   12.8470 C.ar    1  <0>1       -0.1021
     35 C28         9.1898   14.5318   13.1082 C.ar    1  <0>1       -0.0125
     36 Cl1         8.3893   13.2036   12.3279 Cl      1  <0>1       -0.0438
     37 Cl2        12.1654   15.0742   15.7456 Cl      1  <0>1       -0.0442
     38 H1         17.9421   -1.0931   15.2158 H       1  <0>1        0.1362
     39 H2         17.6631   -0.4831   16.8645 H       1  <0>1        0.1361
     40 H3         16.2933   -1.0604   15.8855 H       1  <0>1        0.1328
     41 H4         15.5197    0.3131   13.9863 H       1  <0>1        0.1558
     42 H5         17.1655    0.1813   13.3206 H       1  <0>1        0.1757
     43 H6         15.9643    2.1674   12.4156 H       1  <0>1        0.1760
     44 H7         17.3947    2.6409   13.3642 H       1  <0>1        0.1573
     45 H8         17.0905    3.4936   15.6386 H       1  <0>1        0.1581
     46 H9         15.4444    3.6253   16.3041 H       1  <0>1        0.1751
     47 H10        15.2157    1.1659   16.2607 H       1  <0>1        0.1560
     48 H11        16.6457    1.6391   17.2094 H       1  <0>1        0.1754
     49 H12        15.0521    4.2902   12.7237 H       1  <0>1        0.1482
     50 H13        16.2937    4.9041   13.8417 H       1  <0>1        0.1461
     51 H14        14.5807    5.1297   15.6203 H       1  <0>1        0.0952
     52 H15        13.3392    4.5157   14.5024 H       1  <0>1        0.0997
     53 H16        13.7719    6.4210   12.9754 H       1  <0>1        0.0797
     54 H17        15.0135    7.0349   14.0934 H       1  <0>1        0.0787
     55 H18        12.6027    6.7151   15.5295 H       1  <0>1        0.4166
     56 H19        13.5200   10.7756   12.2803 H       1  <0>1        0.1832
     57 H20        12.1212   12.8355   12.7035 H       1  <0>1        0.1556
     58 H21         8.8094   13.6876   15.9162 H       1  <0>1        0.4157
     59 H22         7.2749   13.5931   17.6728 H       1  <0>1        0.3969
     60 H23         7.6662   11.2982   19.4358 H       1  <0>1        0.0901
     61 H24         7.1993   13.5402   20.3868 H       1  <0>1        0.0698
     62 H25         5.6409   13.5800   19.5276 H       1  <0>1        0.0701
     63 H26         6.4686   11.5154   21.6179 H       1  <0>1        0.0652
     64 H27         5.3404   12.8663   21.8833 H       1  <0>1        0.0705
     65 H28         3.8397   11.9571   20.1311 H       1  <0>1        0.0644
     66 H29         4.1149   10.7610   21.4203 H       1  <0>1        0.0661
     67 H30         4.3067    9.7151   19.1802 H       1  <0>1        0.0657
     68 H31         5.8651    9.6752   20.0394 H       1  <0>1        0.0636
     69 H32         5.0372   11.7398   17.9492 H       1  <0>1        0.0643
     70 H33         6.1655   10.3890   17.6837 H       1  <0>1        0.0665
     71 H34        10.9593   17.4876   14.8366 H       1  <0>1        0.1482
     72 H35         9.1163   17.9005   13.2608 H       1  <0>1        0.1505
     73 H36         7.9844   16.0165   12.1566 H       1  <0>1        0.1483
     74 N7         17.0876    0.8247   15.3214 N.4     1  <0>1       -0.4066
     75 H37        18.0077    1.2778   15.2745 H       1  <0>1        0.4405
     76 N8         15.5227    2.9820   14.3033 N.4     1  <0>1       -0.4061
     77 H38        14.6026    2.5288   14.3501 H       1  <0>1        0.4384
@<TRIPOS>BOND
     1     1    38    1
     2     1    39    1
     3     1    40    1
     4     1    74    1
     5     2     3    1
     6     2    41    1
     7     2    42    1
     8     2    74    1
     9     3    43    1
    10     3    44    1
    11     3    76    1
    12     4     5    1
    13     4    45    1
    14     4    46    1
    15     4    76    1
    16     5    47    1
    17     5    48    1
    18     5    74    1
    19     6     7    1
    20     6    49    1
    21     6    50    1
    22     6    76    1
    23     7     8    1
    24     7    51    1
    25     7    52    1
    26     8     9    1
    27     8    53    1
    28     8    54    1
    29     9    10    1
    30     9    55    1
    31    10    19   ar
    32    10    11   ar
    33    11    12   ar
    34    12    13   ar
    35    12    56    1
    36    13    18   ar
    37    13    14   ar
    38    14    15   ar
    39    14    57    1
    40    15    16   ar
    41    15    30    1
    42    16    17   ar
    43    16    20    1
    44    17    18   ar
    45    18    19   ar
    46    20    21   am
    47    20    58    1
    48    21    22    2
    49    21    23   am
    50    23    24    1
    51    23    59    1
    52    24    29    1
    53    24    25    1
    54    24    60    1
    55    25    26    1
    56    25    61    1
    57    25    62    1
    58    26    27    1
    59    26    63    1
    60    26    64    1
    61    27    28    1
    62    27    65    1
    63    27    66    1
    64    28    29    1
    65    28    67    1
    66    28    68    1
    67    29    69    1
    68    29    70    1
    69    30    35   ar
    70    30    31   ar
    71    31    32   ar
    72    31    37    1
    73    32    33   ar
    74    32    71    1
    75    33    34   ar
    76    33    72    1
    77    34    35   ar
    78    34    73    1
    79    35    36    1
    80    74    75    1
    81    76    77    1
@<TRIPOS>MOLECULE
ZINC03815480
 59 63 0 0 0
SMALL
USER_CHARGES

@<TRIPOS>ATOM
      1 C1         14.4165    8.0585   15.2676 C.3     1  <0>1        0.0686
      2 N1         13.2490    7.1751   15.2170 N.ar    1  <0>1       -0.5054
      3 C2         12.0149    7.6968   14.9214 C.ar    1  <0>1        0.4668
      4 C3         10.8796    6.8592   14.8682 C.ar    1  <0>1       -0.2680
      5 C4         11.0057    5.4738   15.1189 C.ar    1  <0>1        0.0216
      6 C5         12.2411    4.9622   15.4135 C.ar    1  <0>1       -0.1509
      7 C6         13.3980    5.8588   15.4606 C.ar    1  <0>1        0.5542
      8 O1         14.5009    5.4117   15.7212 O.2     1  <0>1       -0.4935
      9 C7         12.4059    3.5146   15.6821 C.ar    1  <0>1       -0.0164
     10 C8         12.2905    3.0259   16.9841 C.ar    1  <0>1       -0.0059
     11 C9         12.4404    1.6745   17.2270 C.ar    1  <0>1       -0.1052
     12 C10        12.7146    0.8075   16.1846 C.ar    1  <0>1       -0.0845
     13 C11        12.8354    1.2862   14.8924 C.ar    1  <0>1       -0.1054
     14 C12        12.6830    2.6346   14.6351 C.ar    1  <0>1       -0.0058
     15 Cl1        12.8363    3.2336   13.0129 Cl      1  <0>1       -0.0514
     16 Cl2        11.9530    4.1131   18.2947 Cl      1  <0>1       -0.0501
     17 C13         9.6363    7.4326   14.5625 C.ar    1  <0>1        0.2617
     18 N2          9.5780    8.7316   14.3370 N.ar    1  <0>1       -0.5734
     19 C14        10.6677    9.4896   14.3958 C.ar    1  <0>1        0.6045
     20 N3         11.8633    8.9931   14.6751 N.ar    1  <0>1       -0.5917
     21 N4         10.5502   10.8439   14.1511 N.pl3   1  <0>1       -0.6306
     22 C15         9.3237   11.3763   13.7336 C.ar    1  <0>1        0.1606
     23 C16         8.9504   12.6538   14.1299 C.ar    1  <0>1       -0.1196
     24 C17         7.7412   13.1785   13.7187 C.ar    1  <0>1       -0.1041
     25 C18         6.8987   12.4288   12.9083 C.ar    1  <0>1        0.0675
     26 C19         7.2697   11.1492   12.5163 C.ar    1  <0>1       -0.1392
     27 C20         8.4814   10.6268   12.9229 C.ar    1  <0>1       -0.0846
     28 N5          5.6732   12.9605   12.4914 N.pl3   1  <0>1       -0.4847
     29 C21         4.9446   12.0045   11.6461 C.3     1  <0>1        0.0193
     30 C22         3.5795   12.5906   11.2778 C.3     1  <0>1        0.0019
     31 C23         4.4994   14.8247   11.4234 C.3     1  <0>1        0.0016
     32 C24         5.8644   14.2386   11.7917 C.3     1  <0>1        0.0240
     33 C25         2.4836   14.4268   10.1410 C.3     1  <0>1       -0.0409
     34 H1         14.5369    8.4439   16.2800 H       1  <0>1        0.0762
     35 H2         15.3079    7.4993   14.9832 H       1  <0>1        0.0942
     36 H3         14.2734    8.8897   14.5770 H       1  <0>1        0.0950
     37 H4         10.1404    4.8287   15.0798 H       1  <0>1        0.1519
     38 H5         12.3476    1.2944   18.2337 H       1  <0>1        0.1452
     39 H6         12.8351   -0.2477   16.3805 H       1  <0>1        0.1471
     40 H7         13.0499    0.6041   14.0830 H       1  <0>1        0.1450
     41 H8          8.7457    6.8237   14.5124 H       1  <0>1        0.1885
     42 H9         11.3169   11.4263   14.2685 H       1  <0>1        0.4287
     43 H10         9.6057   13.2368   14.7602 H       1  <0>1        0.1346
     44 H11         7.4510   14.1720   14.0270 H       1  <0>1        0.1318
     45 H12         6.6124   10.5644   11.8901 H       1  <0>1        0.1296
     46 H13         8.7721    9.6335   12.6141 H       1  <0>1        0.1420
     47 H14         4.8044   11.0708   12.1907 H       1  <0>1        0.1299
     48 H15         5.5156   11.8137   10.7375 H       1  <0>1        0.0706
     49 H16         3.0490   11.8955   10.6270 H       1  <0>1        0.1374
     50 H17         2.9979   12.7557   12.1847 H       1  <0>1        0.1402
     51 H18         3.9284   15.0155   12.3320 H       1  <0>1        0.1402
     52 H19         4.6395   15.7586   10.8790 H       1  <0>1        0.1371
     53 H20         6.3950   14.9337   12.4425 H       1  <0>1        0.1275
     54 H21         6.4462   14.0733   10.8850 H       1  <0>1        0.0686
     55 H22         1.8468   14.5953   11.0095 H       1  <0>1        0.1245
     56 H23         2.6538   15.3725    9.6263 H       1  <0>1        0.1229
     57 H24         1.9955   13.7268    9.4629 H       1  <0>1        0.1229
     58 N6          3.7862   13.8635   10.5557 N.4     1  <0>1       -0.4000
     59 H25         4.3538   13.6843    9.7191 H       1  <0>1        0.4272
@<TRIPOS>BOND
     1     1     2    1
     2     1    34    1
     3     1    35    1
     4     1    36    1
     5     2     7   ar
     6     2     3   ar
     7     3    20   ar
     8     3     4   ar
     9     4     5   ar
    10     4    17   ar
    11     5     6   ar
    12     5    37    1
    13     6     7   ar
    14     6     9    1
    15     7     8    2
    16     9    14   ar
    17     9    10   ar
    18    10    11   ar
    19    10    16    1
    20    11    12   ar
    21    11    38    1
    22    12    13   ar
    23    12    39    1
    24    13    14   ar
    25    13    40    1
    26    14    15    1
    27    17    18   ar
    28    17    41    1
    29    18    19   ar
    30    19    20   ar
    31    19    21    1
    32    21    22    1
    33    21    42    1
    34    22    27   ar
    35    22    23   ar
    36    23    24   ar
    37    23    43    1
    38    24    25   ar
    39    24    44    1
    40    25    26   ar
    41    25    28    1
    42    26    27   ar
    43    26    45    1
    44    27    46    1
    45    28    32    1
    46    28    29    1
    47    29    30    1
    48    29    47    1
    49    29    48    1
    50    30    49    1
    51    30    50    1
    52    30    58    1
    53    31    32    1
    54    31    51    1
    55    31    52    1
    56    31    58    1
    57    32    53    1
    58    32    54    1
    59    33    55    1
    60    33    56    1
    61    33    57    1
    62    33    58    1
    63    58    59    1
@<TRIPOS>MOLECULE
ZINC03815482
 66 69 0 0 0
SMALL
USER_CHARGES

@<TRIPOS>ATOM
      1 C1         13.0488    9.7134   15.8861 C.3     1  <0>1       -0.1628
      2 C2         12.1109    9.7088   14.6772 C.3     1  <0>1        0.0964
      3 N1         10.8370    9.0888   15.0500 N.ar    1  <0>1       -0.5024
      4 C3          9.8227    9.8672   15.5476 C.ar    1  <0>1        0.4685
      5 C4          8.5888    9.2854   15.9114 C.ar    1  <0>1       -0.2694
      6 C5          8.3883    7.8938   15.7658 C.ar    1  <0>1        0.0217
      7 C6          9.4059    7.1251   15.2675 C.ar    1  <0>1       -0.1523
      8 C7         10.6733    7.7602   14.9001 C.ar    1  <0>1        0.5554
      9 O1         11.5839    7.0836   14.4565 O.2     1  <0>1       -0.4938
     10 C8          9.2267    5.6637   15.1024 C.ar    1  <0>1       -0.0156
     11 C9          9.5608    4.7949   16.1419 C.ar    1  <0>1       -0.0059
     12 C10         9.3869    3.4340   15.9832 C.ar    1  <0>1       -0.1056
     13 C11         8.8922    2.9309   14.7934 C.ar    1  <0>1       -0.0849
     14 C12         8.5645    3.7863   13.7569 C.ar    1  <0>1       -0.1053
     15 C13         8.7286    5.1497   13.9045 C.ar    1  <0>1       -0.0061
     16 Cl1         8.3168    6.2215   12.6024 Cl      1  <0>1       -0.0506
     17 Cl2        10.1874    5.4237   17.6338 Cl      1  <0>1       -0.0511
     18 C14         7.5776   10.1168   16.4158 C.ar    1  <0>1        0.2622
     19 N2          7.8205   11.4092   16.5298 N.ar    1  <0>1       -0.5746
     20 C15         8.9942   11.9221   16.1771 C.ar    1  <0>1        0.6038
     21 N3          9.9768   11.1786   15.6918 N.ar    1  <0>1       -0.5905
     22 N4          9.1951   13.2816   16.3166 N.pl3   1  <0>1       -0.6300
     23 C16         8.2137   14.0758   16.9221 C.ar    1  <0>1        0.1461
     24 C17         7.4471   13.5622   17.9598 C.ar    1  <0>1       -0.0695
     25 C18         6.4796   14.3464   18.5566 C.ar    1  <0>1       -0.1191
     26 C19         6.2739   15.6469   18.1202 C.ar    1  <0>1        0.0968
     27 C20         7.0393   16.1607   17.0837 C.ar    1  <0>1       -0.1793
     28 C21         8.0068   15.3778   16.4855 C.ar    1  <0>1       -0.1052
     29 O2          5.3217   16.4187   18.7090 O.3     1  <0>1       -0.3290
     30 C22         5.1638   17.7482   18.2094 C.3     1  <0>1        0.0255
     31 C23         3.9771   18.4172   18.9059 C.3     1  <0>1       -0.0025
     32 C24         5.2149   19.6491   20.5830 C.3     1  <0>1       -0.0102
     33 C25         5.6812   19.6052   22.0395 C.3     1  <0>1       -0.1898
     34 C26         3.0287   18.7507   21.1086 C.3     1  <0>1       -0.0110
     35 C27         2.1853   17.4754   21.0510 C.3     1  <0>1       -0.1898
     36 H1         13.2254    8.6887   16.2127 H       1  <0>1        0.0619
     37 H2         13.9966   10.1748   15.6088 H       1  <0>1        0.0783
     38 H3         12.5926   10.2800   16.6978 H       1  <0>1        0.0585
     39 H4         12.5670    9.1423   13.8656 H       1  <0>1        0.0996
     40 H5         11.9342   10.7337   14.3506 H       1  <0>1        0.1008
     41 H6          7.4462    7.4438   16.0423 H       1  <0>1        0.1514
     42 H7          9.6411    2.7607   16.7885 H       1  <0>1        0.1449
     43 H8          8.7617    1.8656   14.6730 H       1  <0>1        0.1469
     44 H9          8.1791    3.3872   12.8303 H       1  <0>1        0.1450
     45 H10         6.6205    9.7081   16.7045 H       1  <0>1        0.1885
     46 H11        10.0161   13.6861   15.9951 H       1  <0>1        0.4283
     47 H12         7.6103   12.5513   18.3029 H       1  <0>1        0.1472
     48 H13         5.8833   13.9471   19.3636 H       1  <0>1        0.1364
     49 H14         6.8783   17.1733   16.7442 H       1  <0>1        0.1310
     50 H15         8.6024   15.7779   15.6782 H       1  <0>1        0.1341
     51 H16         6.0704   18.3204   18.4063 H       1  <0>1        0.0849
     52 H17         4.9822   17.7134   17.1351 H       1  <0>1        0.1085
     53 H18         3.8100   19.4032   18.4723 H       1  <0>1        0.1497
     54 H19         3.0850   17.8053   18.7716 H       1  <0>1        0.1425
     55 H20         6.0747   19.5373   19.9227 H       1  <0>1        0.1260
     56 H21         4.7275   20.6040   20.3863 H       1  <0>1        0.1322
     57 H22         4.8212   19.7170   22.7000 H       1  <0>1        0.0810
     58 H23         6.1686   18.6502   22.2364 H       1  <0>1        0.0806
     59 H24         6.3859   20.4168   22.2201 H       1  <0>1        0.1065
     60 H25         3.2775   18.9751   22.1458 H       1  <0>1        0.1312
     61 H26         2.4634   19.5797   20.6829 H       1  <0>1        0.1308
     62 H27         2.0031   17.2070   20.0103 H       1  <0>1        0.0800
     63 H28         2.7183   16.6645   21.5474 H       1  <0>1        0.0820
     64 H29         1.2336   17.6462   21.5541 H       1  <0>1        0.1059
     65 N5          4.2772   18.5307   20.3486 N.4     1  <0>1       -0.3987
     66 H30         4.7128   17.6577   20.6684 H       1  <0>1        0.4338
@<TRIPOS>BOND
     1     1     2    1
     2     1    36    1
     3     1    37    1
     4     1    38    1
     5     2     3    1
     6     2    39    1
     7     2    40    1
     8     3     8   ar
     9     3     4   ar
    10     4    21   ar
    11     4     5   ar
    12     5     6   ar
    13     5    18   ar
    14     6     7   ar
    15     6    41    1
    16     7     8   ar
    17     7    10    1
    18     8     9    2
    19    10    15   ar
    20    10    11   ar
    21    11    12   ar
    22    11    17    1
    23    12    13   ar
    24    12    42    1
    25    13    14   ar
    26    13    43    1
    27    14    15   ar
    28    14    44    1
    29    15    16    1
    30    18    19   ar
    31    18    45    1
    32    19    20   ar
    33    20    21   ar
    34    20    22    1
    35    22    23    1
    36    22    46    1
    37    23    28   ar
    38    23    24   ar
    39    24    25   ar
    40    24    47    1
    41    25    26   ar
    42    25    48    1
    43    26    27   ar
    44    26    29    1
    45    27    28   ar
    46    27    49    1
    47    28    50    1
    48    29    30    1
    49    30    31    1
    50    30    51    1
    51    30    52    1
    52    31    53    1
    53    31    54    1
    54    31    65    1
    55    32    33    1
    56    32    55    1
    57    32    56    1
    58    32    65    1
    59    33    57    1
    60    33    58    1
    61    33    59    1
    62    34    35    1
    63    34    60    1
    64    34    61    1
    65    34    65    1
    66    35    62    1
    67    35    63    1
    68    35    64    1
    69    65    66    1
@<TRIPOS>MOLECULE
ZINC03815483
 63 66 0 0 0
SMALL
USER_CHARGES

@<TRIPOS>ATOM
      1 C1         12.1607   10.5155   12.7745 C.3     1  <0>1       -0.1634
      2 C2         11.4258    9.4829   13.6315 C.3     1  <0>1        0.0962
      3 N1         11.9920    9.4778   14.9827 N.ar    1  <0>1       -0.5021
      4 C3         11.4698   10.3094   15.9409 C.ar    1  <0>1        0.4682
      5 C4         12.0038   10.3168   17.2478 C.ar    1  <0>1       -0.2648
      6 C5         13.0825    9.4661   17.5801 C.ar    1  <0>1        0.0183
      7 C6         13.5966    8.6390   16.6176 C.ar    1  <0>1       -0.1470
      8 C7         13.0197    8.6565   15.2718 C.ar    1  <0>1        0.5544
      9 O1         13.4712    7.9242   14.4093 O.2     1  <0>1       -0.4910
     10 C8         14.7269    7.7353   16.9346 C.ar    1  <0>1       -0.0179
     11 C9         16.0414    8.1680   16.7560 C.ar    1  <0>1       -0.0056
     12 C10        17.0908    7.3222   17.0580 C.ar    1  <0>1       -0.1050
     13 C11        16.8406    6.0451   17.5270 C.ar    1  <0>1       -0.0839
     14 C12        15.5398    5.6080   17.7010 C.ar    1  <0>1       -0.1051
     15 C13        14.4815    6.4456   17.4077 C.ar    1  <0>1       -0.0057
     16 Cl1        12.8498    5.8952   17.6268 Cl      1  <0>1       -0.0513
     17 Cl2        16.3573    9.7682   16.1617 Cl      1  <0>1       -0.0503
     18 C14        11.4405   11.1819   18.1980 C.ar    1  <0>1        0.2617
     19 N2         10.4344   11.9536   17.8319 N.ar    1  <0>1       -0.5769
     20 C15         9.9574   11.9199   16.5923 C.ar    1  <0>1        0.6012
     21 N3         10.4526   11.1170   15.6627 N.ar    1  <0>1       -0.5876
     22 N4          8.9026   12.7486   16.2625 N.pl3   1  <0>1       -0.6311
     23 C16         8.4267   13.6803   17.1931 C.ar    1  <0>1        0.1605
     24 C17         9.3056   14.2855   18.0818 C.ar    1  <0>1       -0.0663
     25 C18         8.8355   15.2046   18.9990 C.ar    1  <0>1       -0.0998
     26 C19         7.4859   15.5236   19.0326 C.ar    1  <0>1        0.0600
     27 C20         6.6074   14.9195   18.1452 C.ar    1  <0>1       -0.1968
     28 C21         7.0758   13.9998   17.2276 C.ar    1  <0>1       -0.1028
     29 O2          7.0240   16.4294   19.9355 O.3     1  <0>1       -0.2870
     30 C22         5.6231   16.7103   19.9140 C.3     1  <0>1        0.1673
     31 C23         4.9456   15.8567   22.0762 C.3     1  <0>1       -0.0066
     32 C24         6.3289   15.4704   22.6037 C.3     1  <0>1       -0.1885
     33 C25         3.5125   15.5472   20.1493 C.3     1  <0>1       -0.0080
     34 C26         2.9164   14.2100   20.5936 C.3     1  <0>1       -0.1897
     35 H1         12.0474   11.5039   13.2196 H       1  <0>1        0.0586
     36 H2         13.2188   10.2589   12.7240 H       1  <0>1        0.0625
     37 H3         11.7394   10.5193   11.7691 H       1  <0>1        0.0791
     38 H4         11.5391    8.4944   13.1863 H       1  <0>1        0.1003
     39 H5         10.3677    9.7395   13.6819 H       1  <0>1        0.1007
     40 H6         13.4945    9.4677   18.5785 H       1  <0>1        0.1524
     41 H7         18.1086    7.6572   16.9240 H       1  <0>1        0.1455
     42 H8         17.6646    5.3863   17.7581 H       1  <0>1        0.1474
     43 H9         15.3513    4.6096   18.0673 H       1  <0>1        0.1453
     44 H10        11.8219   11.2153   19.2078 H       1  <0>1        0.1896
     45 H11         8.4916   12.6851   15.3861 H       1  <0>1        0.4300
     46 H12        10.3571   14.0409   18.0526 H       1  <0>1        0.1536
     47 H13         9.5189   15.6754   19.6902 H       1  <0>1        0.1445
     48 H14         5.5568   15.1682   18.1722 H       1  <0>1        0.1226
     49 H15         6.3916   13.5294   16.5371 H       1  <0>1        0.1385
     50 H16         5.4365   17.6657   20.4044 H       1  <0>1        0.1739
     51 H17         5.2779   16.7584   18.8812 H       1  <0>1        0.1326
     52 H18         4.7523   16.9063   22.2979 H       1  <0>1        0.1330
     53 H19         4.1877   15.2382   22.5570 H       1  <0>1        0.1290
     54 H20         6.3298   15.5215   23.6925 H       1  <0>1        0.1033
     55 H21         6.5678   14.4550   22.2874 H       1  <0>1        0.0753
     56 H22         7.0745   16.1595   22.2070 H       1  <0>1        0.0904
     57 H23         2.9257   16.3641   20.5694 H       1  <0>1        0.1371
     58 H24         3.4949   15.6093   19.0612 H       1  <0>1        0.1280
     59 H25         3.4879   13.3931   20.1529 H       1  <0>1        0.0805
     60 H26         2.9571   14.1371   21.6803 H       1  <0>1        0.0821
     61 H27         1.8793   14.1471   20.2639 H       1  <0>1        0.1093
     62 N5          4.9125   15.6216   20.6174 N.4     1  <0>1       -0.4258
     63 H28         5.3805   14.7309   20.4125 H       1  <0>1        0.4270
@<TRIPOS>BOND
     1     1     2    1
     2     1    35    1
     3     1    36    1
     4     1    37    1
     5     2     3    1
     6     2    38    1
     7     2    39    1
     8     3     8   ar
     9     3     4   ar
    10     4    21   ar
    11     4     5   ar
    12     5     6   ar
    13     5    18   ar
    14     6     7   ar
    15     6    40    1
    16     7     8   ar
    17     7    10    1
    18     8     9    2
    19    10    15   ar
    20    10    11   ar
    21    11    12   ar
    22    11    17    1
    23    12    13   ar
    24    12    41    1
    25    13    14   ar
    26    13    42    1
    27    14    15   ar
    28    14    43    1
    29    15    16    1
    30    18    19   ar
    31    18    44    1
    32    19    20   ar
    33    20    21   ar
    34    20    22    1
    35    22    23    1
    36    22    45    1
    37    23    28   ar
    38    23    24   ar
    39    24    25   ar
    40    24    46    1
    41    25    26   ar
    42    25    47    1
    43    26    27   ar
    44    26    29    1
    45    27    28   ar
    46    27    48    1
    47    28    49    1
    48    29    30    1
    49    30    50    1
    50    30    51    1
    51    30    62    1
    52    31    32    1
    53    31    52    1
    54    31    53    1
    55    31    62    1
    56    32    54    1
    57    32    55    1
    58    32    56    1
    59    33    34    1
    60    33    57    1
    61    33    58    1
    62    33    62    1
    63    34    59    1
    64    34    60    1
    65    34    61    1
    66    62    63    1
@<TRIPOS>MOLECULE
ZINC03815484
 35 37 0 0 0
SMALL
USER_CHARGES

@<TRIPOS>ATOM
      1 C1         11.2434   10.3488   14.4370 C.ar    1  <0>1       -0.0611
      2 C2         11.3106   11.0056   13.2192 C.ar    1  <0>1       -0.0600
      3 C3         10.6309   12.1900   13.0206 C.ar    1  <0>1       -0.0399
      4 C4          9.8665   12.7363   14.0459 C.ar    1  <0>1        0.0416
      5 C5          9.8006   12.0687   15.2765 C.ar    1  <0>1        0.0084
      6 C6         10.4906   10.8756   15.4667 C.ar    1  <0>1       -0.0521
      7 C7          8.9259   12.8849   16.1472 C.2     1  <0>1        0.0479
      8 C8          8.5656   12.6262   17.4559 C.2     1  <0>1       -0.0254
      9 C9          7.5976   13.4301   18.0927 C.ar    1  <0>1        0.0432
     10 C10         7.5696   13.7715   19.4362 C.ar    1  <0>1       -0.0222
     11 C11         6.4450   14.5755   19.6308 C.ar    1  <0>1       -0.0406
     12 C12         5.8167   14.7122   18.4365 C.ar    1  <0>1        0.0024
     13 N1          6.5090   14.0259   17.4928 N.ar    1  <0>1       -0.3609
     14 H1          6.2757   13.9632   16.5533 H       1  <0>1        0.1653
     15 C13         8.5650   13.3538   20.4878 C.3     1  <0>1       -0.0156
     16 C14         9.7533   14.3174   20.4764 C.3     1  <0>1        0.0488
     17 C15        10.7489   13.8998   21.5278 C.2     1  <0>1        0.3050
     18 O1         10.5303   12.9308   22.2158 O.2     1  <0>1       -0.2510
     19 C16         8.5282   14.0322   15.3213 C.2     1  <0>1        0.2490
     20 O2          7.8060   14.9492   15.6702 O.2     1  <0>1       -0.2698
     21 N2          9.0976   13.8916   14.1122 N.am    1  <0>1       -0.2809
     22 H2         11.7805    9.4230   14.5806 H       1  <0>1        0.0618
     23 H3         11.9014   10.5872   12.4178 H       1  <0>1        0.0618
     24 H4         10.6912   12.6927   12.0666 H       1  <0>1        0.0636
     25 H5         10.4371   10.3638   16.4162 H       1  <0>1        0.0624
     26 H6          9.0252   11.8084   17.9910 H       1  <0>1        0.0646
     27 H7          6.1306   15.0117   20.5674 H       1  <0>1        0.0635
     28 H8          4.9141   15.2794   18.2638 H       1  <0>1        0.0807
     29 H9          8.0888   13.3757   21.4680 H       1  <0>1        0.0319
     30 H10         8.9146   12.3433   20.2761 H       1  <0>1        0.0319
     31 H11        10.2295   14.2955   19.4962 H       1  <0>1        0.0381
     32 H12         9.4038   15.3279   20.6879 H       1  <0>1        0.0381
     33 H13         8.9890   14.5189   13.3804 H       1  <0>1        0.1552
     34 O3         11.8784   14.6042   21.7002 O.3     1  <0>1       -0.4806
     35 H          12.0479   15.3556   21.1667 H       1  <0>1        0.2951
@<TRIPOS>BOND
     1     1     6   ar
     2     1     2   ar
     3     1    22    1
     4     2     3   ar
     5     2    23    1
     6     3     4   ar
     7     3    24    1
     8     4    21    1
     9     4     5   ar
    10     5     6   ar
    11     5     7    1
    12     6    25    1
    13     7     8    2
    14     7    19    1
    15     8     9    1
    16     8    26    1
    17     9    13   ar
    18     9    10   ar
    19    10    11   ar
    20    10    15    1
    21    11    12   ar
    22    11    27    1
    23    12    13   ar
    24    12    28    1
    25    13    14    1
    26    15    16    1
    27    15    29    1
    28    15    30    1
    29    16    17    1
    30    16    31    1
    31    16    32    1
    32    17    18    2
    33    17    34    1
    34    19    20    2
    35    19    21   am
    36    21    33    1
    37    34    35    1
@<TRIPOS>MOLECULE
ZINC03815485
 38 40 0 0 0
SMALL
USER_CHARGES

@<TRIPOS>ATOM
      1 C1         13.0273   12.4190   12.5106 C.3     1  <0>1       -0.0380
      2 C2         11.9100   12.6799   13.4875 C.ar    1  <0>1       -0.0294
      3 C3         11.9986   13.4176   14.6223 C.ar    1  <0>1        0.0053
      4 N1         10.7903   13.4248   15.2392 N.ar    1  <0>1       -0.3606
      5 H1         10.5819   13.8791   16.0705 H       1  <0>1        0.1653
      6 C4          9.9084   12.6782   14.4877 C.ar    1  <0>1        0.0434
      7 C5         10.6028   12.2000   13.3870 C.ar    1  <0>1       -0.0193
      8 C6         10.0501   11.3295   12.2880 C.3     1  <0>1       -0.0154
      9 C7          9.4918   12.2126   11.1702 C.3     1  <0>1        0.0488
     10 C8          8.9390   11.3422   10.0711 C.2     1  <0>1        0.3050
     11 O1          8.9867   10.1390   10.1716 O.2     1  <0>1       -0.2510
     12 C9          8.5511   12.4396   14.7864 C.2     1  <0>1       -0.0254
     13 C10         8.1439   12.3193   16.1013 C.2     1  <0>1        0.0479
     14 C11         6.7573   12.2219   16.6089 C.ar    1  <0>1        0.0084
     15 C12         5.5121   12.2249   15.9884 C.ar    1  <0>1       -0.0521
     16 C13         4.3674   12.1130   16.7511 C.ar    1  <0>1       -0.0611
     17 C14         4.4586   12.0078   18.1292 C.ar    1  <0>1       -0.0600
     18 C15         5.6886   12.0086   18.7548 C.ar    1  <0>1       -0.0399
     19 C16         6.8536   12.1157   18.0031 C.ar    1  <0>1        0.0416
     20 N2          8.1932   12.1418   18.3708 N.am    1  <0>1       -0.2809
     21 C17         8.9935   12.2597   17.2976 C.2     1  <0>1        0.2490
     22 O2         10.2107   12.3089   17.3143 O.2     1  <0>1       -0.2698
     23 H2         13.5604   11.5139   12.8014 H       1  <0>1        0.0278
     24 H3         12.6130   12.2911   11.5105 H       1  <0>1        0.0278
     25 H4         13.7167   13.2634   12.5130 H       1  <0>1        0.0278
     26 H5         12.8874   13.9183   14.9772 H       1  <0>1        0.0810
     27 H6         10.8447   10.6985   11.8900 H       1  <0>1        0.0319
     28 H7          9.2534   10.7020   12.6875 H       1  <0>1        0.0319
     29 H8          8.6972   12.8436   11.5682 H       1  <0>1        0.0381
     30 H9         10.2885   12.8401   10.7707 H       1  <0>1        0.0381
     31 H10         7.8298   12.3510   13.9875 H       1  <0>1        0.0646
     32 H11         5.4418   12.3069   14.9138 H       1  <0>1        0.0624
     33 H12         3.3990   12.1113   16.2730 H       1  <0>1        0.0618
     34 H13         3.5583   11.9247   18.7200 H       1  <0>1        0.0618
     35 H14         5.7466   11.9256   19.8300 H       1  <0>1        0.0636
     36 H15         8.5104   12.0823   19.2854 H       1  <0>1        0.1552
     37 O3          8.3937   11.9035    8.9805 O.3     1  <0>1       -0.4806
     38 H           8.3567   12.8365    8.9026 H       1  <0>1        0.2951
@<TRIPOS>BOND
     1     1     2    1
     2     1    23    1
     3     1    24    1
     4     1    25    1
     5     2     7   ar
     6     2     3   ar
     7     3     4   ar
     8     3    26    1
     9     4     5    1
    10     4     6   ar
    11     6     7   ar
    12     6    12    1
    13     7     8    1
    14     8     9    1
    15     8    27    1
    16     8    28    1
    17     9    10    1
    18     9    29    1
    19     9    30    1
    20    10    11    2
    21    10    37    1
    22    12    13    2
    23    12    31    1
    24    13    21    1
    25    13    14    1
    26    14    19   ar
    27    14    15   ar
    28    15    16   ar
    29    15    32    1
    30    16    17   ar
    31    16    33    1
    32    17    18   ar
    33    17    34    1
    34    18    19   ar
    35    18    35    1
    36    19    20    1
    37    20    21   am
    38    20    36    1
    39    21    22    2
    40    37    38    1
@<TRIPOS>MOLECULE
ZINC03815488
 63 66 0 0 0
SMALL
USER_CHARGES

@<TRIPOS>ATOM
      1 C1         26.3253    4.9445   16.4152 C.3     1  <0>1       -0.1870
      2 C2         25.1803    5.8739   16.0075 C.3     1  <0>1       -0.0158
      3 C3         25.6563    5.5679   13.6532 C.3     1  <0>1       -0.0116
      4 C4         25.8982    7.0471   13.3453 C.3     1  <0>1       -0.1882
      5 C5         24.1179    4.0766   14.7810 C.3     1  <0>1       -0.0029
      6 C6         22.9011    4.0440   15.7080 C.3     1  <0>1        0.0270
      7 O1         21.8470    4.8225   15.1378 O.3     1  <0>1       -0.3287
      8 C7         20.6862    4.8980   15.8405 C.ar    1  <0>1        0.1339
      9 C8         20.5631    4.2312   17.0517 C.ar    1  <0>1       -0.2170
     10 C9         19.3853    4.3109   17.7698 C.ar    1  <0>1       -0.0567
     11 C10        18.3228    5.0456   17.2799 C.ar    1  <0>1       -0.1296
     12 C11        18.4384    5.7107   16.0657 C.ar    1  <0>1        0.2084
     13 C12        19.6230    5.6361   15.3455 C.ar    1  <0>1       -0.1708
     14 N1         17.3634    6.4539   15.5695 N.pl3   1  <0>1       -0.6321
     15 C13        16.0704    5.9981   15.7418 C.ar    1  <0>1        0.6048
     16 N2         15.8812    4.7978   16.2795 N.ar    1  <0>1       -0.5701
     17 C14        14.6666    4.3185   16.4706 C.ar    1  <0>1        0.2634
     18 C15        13.5674    5.1000   16.0826 C.ar    1  <0>1       -0.2660
     19 C16        12.2428    4.6382   16.2562 C.ar    1  <0>1        0.0217
     20 C17        11.2041    5.4380   15.8614 C.ar    1  <0>1       -0.1505
     21 C18        11.4891    6.7474   15.2705 C.ar    1  <0>1        0.5544
     22 O2         10.5710    7.4656   14.9168 O.2     1  <0>1       -0.4936
     23 N3         12.7615    7.1616   15.1167 N.ar    1  <0>1       -0.5054
     24 C19        13.8088    6.3672   15.5098 C.ar    1  <0>1        0.4654
     25 N4         15.0654    6.7711   15.3602 N.ar    1  <0>1       -0.5912
     26 C20        13.0300    8.4742   14.5238 C.3     1  <0>1        0.0691
     27 C21         9.8042    4.9828   16.0299 C.ar    1  <0>1       -0.0166
     28 C22         9.1714    4.2708   15.0103 C.ar    1  <0>1       -0.0058
     29 C23         7.8677    3.8455   15.1756 C.ar    1  <0>1       -0.1053
     30 C24         7.1864    4.1325   16.3447 C.ar    1  <0>1       -0.0844
     31 C25         7.8062    4.8425   17.3572 C.ar    1  <0>1       -0.1051
     32 C26         9.1111    5.2694   17.2066 C.ar    1  <0>1       -0.0058
     33 Cl1         9.8870    6.1608   18.4783 Cl      1  <0>1       -0.0505
     34 Cl2        10.0226    3.9153   13.5397 Cl      1  <0>1       -0.0509
     35 H1         27.1551    5.0631   15.7186 H       1  <0>1        0.0823
     36 H2         26.6574    5.1972   17.4221 H       1  <0>1        0.1069
     37 H3         25.9791    3.9111   16.3955 H       1  <0>1        0.0794
     38 H4         25.5521    6.8955   15.9286 H       1  <0>1        0.1316
     39 H5         24.3923    5.8310   16.7593 H       1  <0>1        0.1265
     40 H6         26.5866    5.1099   13.9890 H       1  <0>1        0.1330
     41 H7         25.3062    5.0621   12.7535 H       1  <0>1        0.1293
     42 H8         24.9482    7.5309   13.1180 H       1  <0>1        0.0798
     43 H9         26.3533    7.5287   14.2107 H       1  <0>1        0.0799
     44 H10        26.5652    7.1353   12.4878 H       1  <0>1        0.1065
     45 H11        24.8894    3.4126   15.1708 H       1  <0>1        0.1520
     46 H12        23.8245    3.7470   13.7844 H       1  <0>1        0.1410
     47 H13        22.5662    3.0142   15.8319 H       1  <0>1        0.1097
     48 H14        23.1732    4.4571   16.6793 H       1  <0>1        0.0870
     49 H15        21.3905    3.6526   17.4355 H       1  <0>1        0.1281
     50 H16        19.2935    3.7942   18.7137 H       1  <0>1        0.1355
     51 H17        17.4020    5.1032   17.8412 H       1  <0>1        0.1385
     52 H18        19.7155    6.1519   14.4012 H       1  <0>1        0.1354
     53 H19        17.5250    7.2896   15.1044 H       1  <0>1        0.4285
     54 H20        14.5217    3.3437   16.9124 H       1  <0>1        0.1900
     55 H21        12.0529    3.6696   16.6943 H       1  <0>1        0.1528
     56 H22        13.1230    8.3724   13.4427 H       1  <0>1        0.0756
     57 H23        12.2087    9.1524   14.7556 H       1  <0>1        0.0942
     58 H24        13.9578    8.8745   14.9324 H       1  <0>1        0.0947
     59 H25         7.3781    3.2907   14.3889 H       1  <0>1        0.1451
     60 H26         6.1658    3.8009   16.4674 H       1  <0>1        0.1472
     61 H27         7.2685    5.0638   18.2672 H       1  <0>1        0.1452
     62 N5         24.6202    5.4645   14.7023 N.4     1  <0>1       -0.3971
     63 H28        23.8404    6.0884   14.4635 H       1  <0>1        0.4352
@<TRIPOS>BOND
     1     1     2    1
     2     1    35    1
     3     1    36    1
     4     1    37    1
     5     2    38    1
     6     2    39    1
     7     2    62    1
     8     3     4    1
     9     3    40    1
    10     3    41    1
    11     3    62    1
    12     4    42    1
    13     4    43    1
    14     4    44    1
    15     5     6    1
    16     5    45    1
    17     5    46    1
    18     5    62    1
    19     6     7    1
    20     6    47    1
    21     6    48    1
    22     7     8    1
    23     8    13   ar
    24     8     9   ar
    25     9    10   ar
    26     9    49    1
    27    10    11   ar
    28    10    50    1
    29    11    12   ar
    30    11    51    1
    31    12    13   ar
    32    12    14    1
    33    13    52    1
    34    14    15    1
    35    14    53    1
    36    15    25   ar
    37    15    16   ar
    38    16    17   ar
    39    17    18   ar
    40    17    54    1
    41    18    24   ar
    42    18    19   ar
    43    19    20   ar
    44    19    55    1
    45    20    21   ar
    46    20    27    1
    47    21    22    2
    48    21    23   ar
    49    23    24   ar
    50    23    26    1
    51    24    25   ar
    52    26    56    1
    53    26    57    1
    54    26    58    1
    55    27    32   ar
    56    27    28   ar
    57    28    29   ar
    58    28    34    1
    59    29    30   ar
    60    29    59    1
    61    30    31   ar
    62    30    60    1
    63    31    32   ar
    64    31    61    1
    65    32    33    1
    66    62    63    1
@<TRIPOS>MOLECULE
ZINC03815489
 60 63 0 0 0
SMALL
USER_CHARGES

@<TRIPOS>ATOM
      1 C1         12.3399    9.7226   14.0440 C.3     1  <0>1        0.0692
      2 N1         11.7642    9.0215   15.1943 N.ar    1  <0>1       -0.5057
      3 C2         10.8159    9.6457   15.9649 C.ar    1  <0>1        0.4670
      4 C3         10.2511    8.9842   17.0768 C.ar    1  <0>1       -0.2713
      5 C4         10.6586    7.6713   17.4059 C.ar    1  <0>1        0.0246
      6 C5         11.6048    7.0561   16.6306 C.ar    1  <0>1       -0.1551
      7 C6         12.1708    7.7707   15.4845 C.ar    1  <0>1        0.5550
      8 O1         13.0134    7.2309   14.7898 O.2     1  <0>1       -0.4959
      9 C7         12.0527    5.6803   16.9490 C.ar    1  <0>1       -0.0146
     10 C8         13.1374    5.4765   17.8029 C.ar    1  <0>1       -0.0060
     11 C9         13.5474    4.1911   18.0987 C.ar    1  <0>1       -0.1056
     12 C10        12.8911    3.1075   17.5434 C.ar    1  <0>1       -0.0853
     13 C11        11.8182    3.3027   16.6924 C.ar    1  <0>1       -0.1056
     14 C12        11.3952    4.5828   16.3918 C.ar    1  <0>1       -0.0062
     15 Cl1        10.0493    4.8257   15.3227 Cl      1  <0>1       -0.0508
     16 Cl2        13.9661    6.8352   18.4962 Cl      1  <0>1       -0.0506
     17 C13         9.2842    9.6576   17.8383 C.ar    1  <0>1        0.2633
     18 N2          8.9417   10.8822   17.4845 N.ar    1  <0>1       -0.5728
     19 C14         9.4947   11.4739   16.4312 C.ar    1  <0>1        0.6056
     20 N3         10.4072   10.8769   15.6796 N.ar    1  <0>1       -0.5938
     21 N4          9.0993   12.7566   16.1049 N.pl3   1  <0>1       -0.6281
     22 C15         8.2200   13.4528   16.9431 C.ar    1  <0>1        0.1358
     23 C16         8.2731   13.2621   18.3175 C.ar    1  <0>1       -0.0680
     24 C17         7.4058   13.9495   19.1435 C.ar    1  <0>1       -0.1233
     25 C18         6.4820   14.8304   18.6007 C.ar    1  <0>1        0.1056
     26 C19         6.4282   15.0213   17.2277 C.ar    1  <0>1       -0.1849
     27 C20         7.2946   14.3345   16.4003 C.ar    1  <0>1       -0.1048
     28 O2          5.6289   15.5076   19.4148 O.3     1  <0>1       -0.3133
     29 C21         4.7037   16.3983   18.7881 C.3     1  <0>1        0.0627
     30 C22         3.8337   17.0642   19.8561 C.3     1  <0>1       -0.1525
     31 C23         2.8432   18.0179   19.1851 C.3     1  <0>1       -0.0025
     32 C24         2.8110   19.5362   21.0710 C.3     1  <0>1       -0.0487
     33 C25         0.8945   19.3944   19.5981 C.3     1  <0>1       -0.0426
     34 H1         13.2230   10.2773   14.3613 H       1  <0>1        0.0756
     35 H2         12.6213    8.9977   13.2802 H       1  <0>1        0.0935
     36 H3         11.6039   10.4145   13.6345 H       1  <0>1        0.0947
     37 H4         10.2294    7.1607   18.2552 H       1  <0>1        0.1516
     38 H5         14.3846    4.0319   18.7620 H       1  <0>1        0.1448
     39 H6         13.2181    2.1046   17.7749 H       1  <0>1        0.1467
     40 H7         11.3103    2.4525   16.2618 H       1  <0>1        0.1447
     41 H8          8.8294    9.1840   18.6958 H       1  <0>1        0.1888
     42 H9          9.4309   13.1750   15.2949 H       1  <0>1        0.4274
     43 H10         8.9956   12.5800   18.7408 H       1  <0>1        0.1458
     44 H11         7.4470   13.8015   20.2126 H       1  <0>1        0.1365
     45 H12         5.7084   15.7071   16.8058 H       1  <0>1        0.1290
     46 H13         7.2523   14.4829   15.3314 H       1  <0>1        0.1317
     47 H14         5.2516   17.1628   18.2373 H       1  <0>1        0.0716
     48 H15         4.0699   15.8389   18.1001 H       1  <0>1        0.0719
     49 H16         3.2857   16.2997   20.4069 H       1  <0>1        0.0990
     50 H17         4.4675   17.6237   20.5442 H       1  <0>1        0.0990
     51 H18         3.3911   18.7825   18.6343 H       1  <0>1        0.1348
     52 H19         2.2093   17.4585   18.4971 H       1  <0>1        0.1332
     53 H20         3.2755   20.3134   20.4640 H       1  <0>1        0.1243
     54 H21         2.1680   19.9966   21.8211 H       1  <0>1        0.1244
     55 H22         3.5856   18.9508   21.5664 H       1  <0>1        0.1234
     56 H23         0.2758   18.7059   19.0226 H       1  <0>1        0.1224
     57 H24         0.2922   19.8579   20.3794 H       1  <0>1        0.1244
     58 H25         1.2895   20.1665   18.9378 H       1  <0>1        0.1238
     59 N5          1.9967   18.6366   20.2270 N.4     1  <0>1       -0.3970
     60 H26         1.5985   17.8961   20.8164 H       1  <0>1        0.4329
@<TRIPOS>BOND
     1     1     2    1
     2     1    34    1
     3     1    35    1
     4     1    36    1
     5     2     7   ar
     6     2     3   ar
     7     3    20   ar
     8     3     4   ar
     9     4     5   ar
    10     4    17   ar
    11     5     6   ar
    12     5    37    1
    13     6     7   ar
    14     6     9    1
    15     7     8    2
    16     9    14   ar
    17     9    10   ar
    18    10    11   ar
    19    10    16    1
    20    11    12   ar
    21    11    38    1
    22    12    13   ar
    23    12    39    1
    24    13    14   ar
    25    13    40    1
    26    14    15    1
    27    17    18   ar
    28    17    41    1
    29    18    19   ar
    30    19    20   ar
    31    19    21    1
    32    21    22    1
    33    21    42    1
    34    22    27   ar
    35    22    23   ar
    36    23    24   ar
    37    23    43    1
    38    24    25   ar
    39    24    44    1
    40    25    26   ar
    41    25    28    1
    42    26    27   ar
    43    26    45    1
    44    27    46    1
    45    28    29    1
    46    29    30    1
    47    29    47    1
    48    29    48    1
    49    30    31    1
    50    30    49    1
    51    30    50    1
    52    31    51    1
    53    31    52    1
    54    31    59    1
    55    32    53    1
    56    32    54    1
    57    32    55    1
    58    32    59    1
    59    33    56    1
    60    33    57    1
    61    33    58    1
    62    33    59    1
    63    59    60    1
@<TRIPOS>MOLECULE
ZINC03815490
 57 60 0 0 0
SMALL
USER_CHARGES

@<TRIPOS>ATOM
      1 C1         12.2452    9.0803   13.6558 C.3     1  <0>1        0.0688
      2 N1         12.9317    8.8837   14.9349 N.ar    1  <0>1       -0.5054
      3 C2         13.6465    9.9162   15.4877 C.ar    1  <0>1        0.4669
      4 C3         14.3139    9.7433   16.7198 C.ar    1  <0>1       -0.2682
      5 C4         14.2510    8.5030   17.3949 C.ar    1  <0>1        0.0221
      6 C5         13.5345    7.4787   16.8361 C.ar    1  <0>1       -0.1514
      7 C6         12.8543    7.6913   15.5567 C.ar    1  <0>1        0.5544
      8 O1         12.2151    6.7853   15.0523 O.2     1  <0>1       -0.4938
      9 C7         13.4489    6.1669   17.5192 C.ar    1  <0>1       -0.0163
     10 C8         14.3927    5.1746   17.2515 C.ar    1  <0>1       -0.0057
     11 C9         14.3094    3.9551   17.8946 C.ar    1  <0>1       -0.1054
     12 C10        13.2880    3.7132   18.7955 C.ar    1  <0>1       -0.0846
     13 C11        12.3464    4.6909   19.0618 C.ar    1  <0>1       -0.1052
     14 C12        12.4207    5.9162   18.4288 C.ar    1  <0>1       -0.0060
     15 Cl1        11.2373    7.1415   18.7635 Cl      1  <0>1       -0.0505
     16 Cl2        15.6719    5.4740   16.1168 Cl      1  <0>1       -0.0510
     17 C13        15.0334   10.8244   17.2507 C.ar    1  <0>1        0.2629
     18 N2         15.0573   11.9592   16.5770 N.ar    1  <0>1       -0.5744
     19 C14        14.4170   12.0857   15.4199 C.ar    1  <0>1        0.6043
     20 N3         13.7211   11.0958   14.8818 N.ar    1  <0>1       -0.5920
     21 N4         14.4746   13.2960   14.7564 N.pl3   1  <0>1       -0.6297
     22 C15        15.2798   14.3286   15.2523 C.ar    1  <0>1        0.1462
     23 C16        16.4761   14.0307   15.8916 C.ar    1  <0>1       -0.0702
     24 C17        17.2699   15.0496   16.3799 C.ar    1  <0>1       -0.1186
     25 C18        16.8728   16.3705   16.2316 C.ar    1  <0>1        0.0951
     26 C19        15.6781   16.6689   15.5931 C.ar    1  <0>1       -0.1790
     27 C20        14.8829   15.6511   15.1046 C.ar    1  <0>1       -0.1058
     28 O2         17.6556   17.3734   16.7120 O.3     1  <0>1       -0.3298
     29 C21        17.1854   18.7097   16.5244 C.3     1  <0>1        0.0242
     30 C22        18.1913   19.6933   17.1259 C.3     1  <0>1        0.0028
     31 C23        19.3600   20.2782   15.0875 C.3     1  <0>1       -0.0473
     32 C24        20.5667   20.1594   17.1833 C.3     1  <0>1       -0.0427
     33 H1         12.9159    8.8144   12.8388 H       1  <0>1        0.0759
     34 H2         11.3583    8.4477   13.6184 H       1  <0>1        0.0941
     35 H3         11.9504   10.1251   13.5584 H       1  <0>1        0.0949
     36 H4         14.7594    8.3658   18.3378 H       1  <0>1        0.1522
     37 H5         15.0412    3.1874   17.6908 H       1  <0>1        0.1450
     38 H6         13.2251    2.7566   19.2929 H       1  <0>1        0.1471
     39 H7         11.5511    4.4957   19.7659 H       1  <0>1        0.1451
     40 H8         15.5564   10.7301   18.1910 H       1  <0>1        0.1894
     41 H9         13.9571   13.4305   13.9471 H       1  <0>1        0.4285
     42 H10        16.7876   13.0027   16.0029 H       1  <0>1        0.1487
     43 H11        18.2002   14.8182   16.8772 H       1  <0>1        0.1369
     44 H12        15.3695   17.6974   15.4784 H       1  <0>1        0.1311
     45 H13        13.9525   15.8836   14.6079 H       1  <0>1        0.1344
     46 H14        17.0745   18.9097   15.4588 H       1  <0>1        0.0853
     47 H15        16.2212   18.8284   17.0188 H       1  <0>1        0.1085
     48 H16        17.7969   20.7068   17.0524 H       1  <0>1        0.1500
     49 H17        18.3610   19.4445   18.1735 H       1  <0>1        0.1412
     50 H18        19.1139   21.3293   15.2381 H       1  <0>1        0.1252
     51 H19        20.3128   20.1993   14.5641 H       1  <0>1        0.1247
     52 H20        18.5788   19.8036   14.4936 H       1  <0>1        0.1190
     53 H21        20.7181   19.5465   18.0720 H       1  <0>1        0.1229
     54 H22        21.4771   20.1617   16.5841 H       1  <0>1        0.1236
     55 H23        20.3258   21.1795   17.4822 H       1  <0>1        0.1238
     56 N5         19.4657   19.5795   16.3857 N.4     1  <0>1       -0.4004
     57 H24        19.6646   18.5867   16.2150 H       1  <0>1        0.4384
@<TRIPOS>BOND
     1     1     2    1
     2     1    33    1
     3     1    34    1
     4     1    35    1
     5     2     7   ar
     6     2     3   ar
     7     3    20   ar
     8     3     4   ar
     9     4     5   ar
    10     4    17   ar
    11     5     6   ar
    12     5    36    1
    13     6     7   ar
    14     6     9    1
    15     7     8    2
    16     9    14   ar
    17     9    10   ar
    18    10    11   ar
    19    10    16    1
    20    11    12   ar
    21    11    37    1
    22    12    13   ar
    23    12    38    1
    24    13    14   ar
    25    13    39    1
    26    14    15    1
    27    17    18   ar
    28    17    40    1
    29    18    19   ar
    30    19    20   ar
    31    19    21    1
    32    21    22    1
    33    21    41    1
    34    22    27   ar
    35    22    23   ar
    36    23    24   ar
    37    23    42    1
    38    24    25   ar
    39    24    43    1
    40    25    26   ar
    41    25    28    1
    42    26    27   ar
    43    26    44    1
    44    27    45    1
    45    28    29    1
    46    29    30    1
    47    29    46    1
    48    29    47    1
    49    30    48    1
    50    30    49    1
    51    30    56    1
    52    31    50    1
    53    31    51    1
    54    31    52    1
    55    31    56    1
    56    32    53    1
    57    32    54    1
    58    32    55    1
    59    32    56    1
    60    56    57    1
@<TRIPOS>MOLECULE
ZINC03815491
 64 68 0 0 0
SMALL
USER_CHARGES

@<TRIPOS>ATOM
      1 C1         12.3286    9.7168   14.0349 C.3     1  <0>1        0.0688
      2 N1         11.7642    9.0215   15.1943 N.ar    1  <0>1       -0.5055
      3 C2         10.8213    9.6484   15.9692 C.ar    1  <0>1        0.4669
      4 C3         10.2673    8.9927   17.0900 C.ar    1  <0>1       -0.2682
      5 C4         10.6805    7.6826   17.4235 C.ar    1  <0>1        0.0221
      6 C5         11.6216    7.0648   16.6442 C.ar    1  <0>1       -0.1515
      7 C6         12.1760    7.7734   15.4886 C.ar    1  <0>1        0.5544
      8 O1         13.0134    7.2309   14.7898 O.2     1  <0>1       -0.4938
      9 C7         12.0751    5.6918   16.9671 C.ar    1  <0>1       -0.0162
     10 C8         13.1678    5.4955   17.8126 C.ar    1  <0>1       -0.0057
     11 C9         13.5824    4.2129   18.1135 C.ar    1  <0>1       -0.1054
     12 C10        12.9234    3.1245   17.5707 C.ar    1  <0>1       -0.0846
     13 C11        11.8429    3.3123   16.7277 C.ar    1  <0>1       -0.1052
     14 C12        11.4151    4.5896   16.4227 C.ar    1  <0>1       -0.0060
     15 Cl1        10.0595    4.8233   15.3636 Cl      1  <0>1       -0.0505
     16 Cl2        14.0003    6.8602   18.4896 Cl      1  <0>1       -0.0510
     17 C13         9.3056    9.6687   17.8556 C.ar    1  <0>1        0.2626
     18 N2          8.9575   10.8904   17.4973 N.ar    1  <0>1       -0.5742
     19 C14         9.5002   11.4766   16.4357 C.ar    1  <0>1        0.6042
     20 N3         10.4075   10.8770   15.6800 N.ar    1  <0>1       -0.5920
     21 N4          9.0994   12.7565   16.1049 N.pl3   1  <0>1       -0.6292
     22 C15         8.2207   13.4536   16.9432 C.ar    1  <0>1        0.1460
     23 C16         8.2628   13.2510   18.3163 C.ar    1  <0>1       -0.0713
     24 C17         7.3962   13.9392   19.1424 C.ar    1  <0>1       -0.1186
     25 C18         6.4841   14.8331   18.6008 C.ar    1  <0>1        0.0953
     26 C19         6.4414   15.0361   17.2292 C.ar    1  <0>1       -0.1789
     27 C20         7.3070   14.3483   16.4018 C.ar    1  <0>1       -0.1064
     28 O2          5.6311   15.5104   19.4149 O.3     1  <0>1       -0.3288
     29 C21         4.7183   16.4149   18.7897 C.3     1  <0>1        0.0251
     30 C22         3.8466   17.0788   19.8573 C.3     1  <0>1        0.0030
     31 C23         4.0165   18.1888   22.0021 C.3     1  <0>1       -0.0015
     32 C24         4.9738   18.9372   22.9321 C.3     1  <0>1       -0.1481
     33 C25         5.4009   20.2494   22.2685 C.3     1  <0>1       -0.1389
     34 C26         6.0523   19.9406   20.9175 C.3     1  <0>1       -0.1474
     35 C27         5.0636   19.1630   20.0459 C.3     1  <0>1       -0.0059
     36 H1         13.2131   10.2752   14.3412 H       1  <0>1        0.0759
     37 H2         12.6049    8.9877   13.2731 H       1  <0>1        0.0941
     38 H3         11.5877   10.4047   13.6276 H       1  <0>1        0.0949
     39 H4         10.2596    7.1764   18.2796 H       1  <0>1        0.1522
     40 H5         14.4257    4.0594   18.7706 H       1  <0>1        0.1450
     41 H6         13.2543    2.1236   17.8059 H       1  <0>1        0.1471
     42 H7         11.3329    2.4584   16.3069 H       1  <0>1        0.1451
     43 H8          8.8592    9.1993   18.7198 H       1  <0>1        0.1894
     44 H9          9.4265   13.1723   15.2919 H       1  <0>1        0.4284
     45 H10         8.9761   12.5587   18.7385 H       1  <0>1        0.1497
     46 H11         7.4288   13.7817   20.2103 H       1  <0>1        0.1366
     47 H12         5.7307   15.7320   16.8084 H       1  <0>1        0.1309
     48 H13         7.2734   14.5062   15.3340 H       1  <0>1        0.1342
     49 H14         5.2770   17.1794   18.2498 H       1  <0>1        0.0845
     50 H15         4.0848   15.8673   18.0921 H       1  <0>1        0.1086
     51 H16         3.0905   17.6986   19.3753 H       1  <0>1        0.1495
     52 H17         3.3583   16.3107   20.4570 H       1  <0>1        0.1412
     53 H18         3.1308   18.7991   21.8249 H       1  <0>1        0.1303
     54 H19         3.7217   17.2473   22.4656 H       1  <0>1        0.1291
     55 H20         5.8535   18.3217   23.1207 H       1  <0>1        0.0878
     56 H21         4.4717   19.1531   23.8753 H       1  <0>1        0.1125
     57 H22         6.1166   20.7652   22.9085 H       1  <0>1        0.0941
     58 H23         4.5269   20.8825   22.1153 H       1  <0>1        0.0818
     59 H24         6.9488   19.3409   21.0745 H       1  <0>1        0.0875
     60 H25         6.3199   20.8733   20.4210 H       1  <0>1        0.1118
     61 H26         5.5293   18.9292   19.0886 H       1  <0>1        0.1249
     62 H27         4.1731   19.7689   19.8781 H       1  <0>1        0.1315
     63 N5          4.7113   17.9004   20.7293 N.4     1  <0>1       -0.3960
     64 H28         5.5727   17.3793   20.9308 H       1  <0>1        0.4337
@<TRIPOS>BOND
     1     1     2    1
     2     1    36    1
     3     1    37    1
     4     1    38    1
     5     2     7   ar
     6     2     3   ar
     7     3    20   ar
     8     3     4   ar
     9     4     5   ar
    10     4    17   ar
    11     5     6   ar
    12     5    39    1
    13     6     7   ar
    14     6     9    1
    15     7     8    2
    16     9    14   ar
    17     9    10   ar
    18    10    11   ar
    19    10    16    1
    20    11    12   ar
    21    11    40    1
    22    12    13   ar
    23    12    41    1
    24    13    14   ar
    25    13    42    1
    26    14    15    1
    27    17    18   ar
    28    17    43    1
    29    18    19   ar
    30    19    20   ar
    31    19    21    1
    32    21    22    1
    33    21    44    1
    34    22    27   ar
    35    22    23   ar
    36    23    24   ar
    37    23    45    1
    38    24    25   ar
    39    24    46    1
    40    25    26   ar
    41    25    28    1
    42    26    27   ar
    43    26    47    1
    44    27    48    1
    45    28    29    1
    46    29    30    1
    47    29    49    1
    48    29    50    1
    49    30    51    1
    50    30    52    1
    51    30    63    1
    52    31    32    1
    53    31    53    1
    54    31    54    1
    55    31    63    1
    56    32    33    1
    57    32    55    1
    58    32    56    1
    59    33    34    1
    60    33    57    1
    61    33    58    1
    62    34    35    1
    63    34    59    1
    64    34    60    1
    65    35    61    1
    66    35    62    1
    67    35    63    1
    68    63    64    1
@<TRIPOS>MOLECULE
ZINC03815492
 66 69 0 0 0
SMALL
USER_CHARGES

@<TRIPOS>ATOM
      1 C1          3.2386   17.4513   22.5991 C.3     1  <0>1       -0.1897
      2 C2          3.8000   18.5599   21.7064 C.3     1  <0>1       -0.0154
      3 N1          4.6302   17.9650   20.6506 N.4     1  <0>1       -0.2672
      4 C3          5.1692   19.0293   19.7935 C.3     1  <0>1       -0.0563
      5 C4          5.7389   17.2194   21.2612 C.3     1  <0>1       -0.0169
      6 C5          6.4925   18.1305   22.2323 C.3     1  <0>1       -0.1895
      7 C6          3.8128   17.0513   19.8413 C.3     1  <0>1       -0.0062
      8 C7          4.6897   16.3902   18.7760 C.3     1  <0>1        0.0280
      9 O1          5.6085   15.4941   19.4045 O.3     1  <0>1       -0.3206
     10 C8          6.4667   14.8203   18.5929 C.ar    1  <0>1        0.0909
     11 C9          7.3847   13.9345   19.1376 C.ar    1  <0>1       -0.1190
     12 C10         8.2572   13.2505   18.3142 C.ar    1  <0>1       -0.0698
     13 C11         8.2149   13.4493   16.9405 C.ar    1  <0>1        0.1460
     14 C12         7.2952   14.3359   16.3959 C.ar    1  <0>1       -0.1053
     15 C13         6.4237   15.0194   17.2208 C.ar    1  <0>1       -0.1789
     16 N2          9.0994   12.7565   16.1048 N.pl3   1  <0>1       -0.6300
     17 C14         9.4855   11.4691   16.4236 C.ar    1  <0>1        0.6043
     18 N3          8.9154   10.8686   17.4630 N.ar    1  <0>1       -0.5738
     19 C15         9.2487    9.6397   17.8092 C.ar    1  <0>1        0.2630
     20 C16        10.2244    8.9705   17.0545 C.ar    1  <0>1       -0.2684
     21 C17        10.6228    7.6529   17.3761 C.ar    1  <0>1        0.0222
     22 C18        11.5785    7.0425   16.6088 C.ar    1  <0>1       -0.1516
     23 C19        12.1629    7.7666   15.4778 C.ar    1  <0>1        0.5544
     24 O2         13.0135    7.2310   14.7897 O.2     1  <0>1       -0.4939
     25 N4         11.7641    9.0215   15.1944 N.ar    1  <0>1       -0.5054
     26 C20        10.8070    9.6410   15.9578 C.ar    1  <0>1        0.4666
     27 N5         10.4062   10.8766   15.6790 N.ar    1  <0>1       -0.5921
     28 C21        12.3581    9.7321   14.0593 C.3     1  <0>1        0.0688
     29 C22        12.0179    5.6624   16.9201 C.ar    1  <0>1       -0.0161
     30 C23        13.0897    5.4471   17.7873 C.ar    1  <0>1       -0.0058
     31 C24        13.4916    4.1578   18.0769 C.ar    1  <0>1       -0.1054
     32 C25        12.8402    3.0815   17.5017 C.ar    1  <0>1       -0.0846
     33 C26        11.7804    3.2882   16.6371 C.ar    1  <0>1       -0.1053
     34 C27        11.3655    4.5722   16.3430 C.ar    1  <0>1       -0.0060
     35 Cl1        10.0356    4.8295   15.2573 Cl      1  <0>1       -0.0505
     36 Cl2        13.9128    6.7966   18.5050 Cl      1  <0>1       -0.0511
     37 H1          2.6321   16.7733   21.9986 H       1  <0>1        0.0801
     38 H2          4.0613   16.8982   23.0522 H       1  <0>1        0.0822
     39 H3          2.6225   17.8927   23.3825 H       1  <0>1        0.1046
     40 H4          4.4065   19.2378   22.3069 H       1  <0>1        0.1322
     41 H5          2.9772   19.1131   21.2533 H       1  <0>1        0.1271
     42 H6          4.3474   19.6124   19.3779 H       1  <0>1        0.1230
     43 H7          5.8140   19.6800   20.3842 H       1  <0>1        0.1255
     44 H8          5.7461   18.5853   18.9823 H       1  <0>1        0.1208
     45 H9          5.3441   16.3593   21.8021 H       1  <0>1        0.1297
     46 H10         6.4195   16.8771   20.4817 H       1  <0>1        0.1429
     47 H11         6.8873   18.9905   21.6914 H       1  <0>1        0.0775
     48 H12         5.8120   18.4727   23.0118 H       1  <0>1        0.0794
     49 H13         7.3152   17.5773   22.6853 H       1  <0>1        0.1035
     50 H14         3.0130   17.6117   19.3569 H       1  <0>1        0.1469
     51 H15         3.3811   16.2841   20.4840 H       1  <0>1        0.1424
     52 H16         5.2432   17.1570   18.2340 H       1  <0>1        0.0857
     53 H17         4.0602   15.8360   18.0799 H       1  <0>1        0.1083
     54 H18         7.4175   13.7800   20.2060 H       1  <0>1        0.1362
     55 H19         8.9751   12.5645   18.7388 H       1  <0>1        0.1466
     56 H20         7.2614   14.4907   15.3276 H       1  <0>1        0.1338
     57 H21         5.7085   15.7090   16.7974 H       1  <0>1        0.1306
     58 H22         9.4411   13.1807   15.3022 H       1  <0>1        0.4283
     59 H23         8.7801    9.1589   18.6552 H       1  <0>1        0.1892
     60 H24        10.1803    7.1356   18.2145 H       1  <0>1        0.1521
     61 H25        13.2384   10.2807   14.3944 H       1  <0>1        0.0759
     62 H26        12.6480    9.0138   13.2924 H       1  <0>1        0.0941
     63 H27        11.6300   10.4304   13.6465 H       1  <0>1        0.0949
     64 H28        14.3183    3.9896   18.7511 H       1  <0>1        0.1450
     65 H29        13.1608    2.0754   17.7284 H       1  <0>1        0.1471
     66 H30        11.2765    2.4436   16.1908 H       1  <0>1        0.1451
@<TRIPOS>BOND
     1     1     2    1
     2     1    37    1
     3     1    38    1
     4     1    39    1
     5     2     3    1
     6     2    40    1
     7     2    41    1
     8     3     4    1
     9     3     5    1
    10     3     7    1
    11     4    42    1
    12     4    43    1
    13     4    44    1
    14     5     6    1
    15     5    45    1
    16     5    46    1
    17     6    47    1
    18     6    48    1
    19     6    49    1
    20     7     8    1
    21     7    50    1
    22     7    51    1
    23     8     9    1
    24     8    52    1
    25     8    53    1
    26     9    10    1
    27    10    15   ar
    28    10    11   ar
    29    11    12   ar
    30    11    54    1
    31    12    13   ar
    32    12    55    1
    33    13    14   ar
    34    13    16    1
    35    14    15   ar
    36    14    56    1
    37    15    57    1
    38    16    17    1
    39    16    58    1
    40    17    27   ar
    41    17    18   ar
    42    18    19   ar
    43    19    20   ar
    44    19    59    1
    45    20    26   ar
    46    20    21   ar
    47    21    22   ar
    48    21    60    1
    49    22    23   ar
    50    22    29    1
    51    23    24    2
    52    23    25   ar
    53    25    26   ar
    54    25    28    1
    55    26    27   ar
    56    28    61    1
    57    28    62    1
    58    28    63    1
    59    29    34   ar
    60    29    30   ar
    61    30    31   ar
    62    30    36    1
    63    31    32   ar
    64    31    64    1
    65    32    33   ar
    66    32    65    1
    67    33    34   ar
    68    33    66    1
    69    34    35    1
@<TRIPOS>MOLECULE
ZINC03815493
 60 64 0 0 0
SMALL
USER_CHARGES

@<TRIPOS>ATOM
      1 C1         10.7569    7.1174   15.8171 C.3     1  <0>1        0.0649
      2 N1         11.9777    6.5788   15.2121 N.ar    1  <0>1       -0.5205
      3 C2         12.9743    7.4366   14.8067 C.ar    1  <0>1        0.2672
      4 C3         12.8437    8.8116   14.9613 C.ar    1  <0>1       -0.2914
      5 C4         13.8766    9.6350   14.5360 C.ar    1  <0>1        0.4335
      6 N2         14.9763    9.1333   13.9834 N.ar    1  <0>1       -0.5467
      7 C5         15.1510    7.8403   13.8198 C.ar    1  <0>1        0.2329
      8 C6         14.1583    6.9374   14.2209 C.ar    1  <0>1       -0.2231
      9 C7         14.3267    5.5433   14.0475 C.ar    1  <0>1        0.0213
     10 C8         13.3311    4.6968   14.4533 C.ar    1  <0>1       -0.1570
     11 C9         12.1154    5.2475   15.0567 C.ar    1  <0>1        0.5516
     12 O1         11.2256    4.4988   15.4199 O.2     1  <0>1       -0.5070
     13 C10        13.4817    3.2329   14.2829 C.ar    1  <0>1       -0.0142
     14 C11        13.0395    2.6144   13.1127 C.ar    1  <0>1       -0.0065
     15 C12        13.1873    1.2499   12.9582 C.ar    1  <0>1       -0.1060
     16 C13        13.7624    0.4951   13.9646 C.ar    1  <0>1       -0.0858
     17 C14        14.1980    1.1012   15.1293 C.ar    1  <0>1       -0.1056
     18 C15        14.0610    2.4656   15.2943 C.ar    1  <0>1       -0.0068
     19 Cl1        14.6079    3.2241   16.7569 Cl      1  <0>1       -0.0506
     20 Cl2        12.3114    3.5590   11.8513 Cl      1  <0>1       -0.0524
     21 N3         13.7567   11.0093   14.6856 N.pl3   1  <0>1       -0.6589
     22 C16        12.5403   11.5649   15.1011 C.ar    1  <0>1        0.1605
     23 C17        12.5286   12.5837   16.0448 C.ar    1  <0>1       -0.1152
     24 C18        11.3292   13.1318   16.4541 C.ar    1  <0>1       -0.0991
     25 C19        10.1346   12.6642   15.9222 C.ar    1  <0>1        0.0697
     26 C20        10.1460   11.6415   14.9828 C.ar    1  <0>1       -0.1361
     27 C21        11.3457   11.0972   14.5692 C.ar    1  <0>1       -0.1216
     28 N4          8.9190   13.2197   16.3372 N.pl3   1  <0>1       -0.4847
     29 C22         7.7868   12.5809   15.6517 C.3     1  <0>1        0.0183
     30 C23         6.4759   13.1594   16.1897 C.3     1  <0>1        0.0019
     31 C24         7.5947   15.2525   16.6650 C.3     1  <0>1        0.0015
     32 C25         8.9056   14.6741   16.1270 C.3     1  <0>1        0.0240
     33 C26         5.1862   15.1965   16.4158 C.3     1  <0>1       -0.0410
     34 H1         10.0213    7.3143   15.0372 H       1  <0>1        0.0735
     35 H2         10.3519    6.3934   16.5241 H       1  <0>1        0.0964
     36 H3         10.9894    8.0451   16.3400 H       1  <0>1        0.0829
     37 H4         11.9534    9.2322   15.4052 H       1  <0>1        0.1497
     38 H5         16.0619    7.4732   13.3703 H       1  <0>1        0.1793
     39 H6         15.2289    5.1526   13.6005 H       1  <0>1        0.1490
     40 H7         12.8495    0.7707   12.0511 H       1  <0>1        0.1444
     41 H8         13.8715   -0.5722   13.8407 H       1  <0>1        0.1467
     42 H9         14.6465    0.5062   15.9111 H       1  <0>1        0.1447
     43 H10        14.5154   11.5852   14.5023 H       1  <0>1        0.4220
     44 H11        13.4575   12.9476   16.4581 H       1  <0>1        0.1380
     45 H12        11.3202   13.9243   17.1877 H       1  <0>1        0.1341
     46 H13         9.2167   11.2746   14.5726 H       1  <0>1        0.1320
     47 H14        11.3548   10.3052   13.8351 H       1  <0>1        0.1358
     48 H15         7.8115   11.5064   15.8327 H       1  <0>1        0.1295
     49 H16         7.8558   12.7713   14.5806 H       1  <0>1        0.0714
     50 H17         5.6356   12.7079   15.6623 H       1  <0>1        0.1380
     51 H18         6.3941   12.9449   17.2553 H       1  <0>1        0.1407
     52 H19         7.5257   15.0621   17.7360 H       1  <0>1        0.1407
     53 H20         7.5702   16.3272   16.4843 H       1  <0>1        0.1380
     54 H21         9.7459   15.1256   16.6544 H       1  <0>1        0.1281
     55 H22         8.9876   14.8883   15.0613 H       1  <0>1        0.0696
     56 H23         5.0384   14.9951   17.4768 H       1  <0>1        0.1247
     57 H24         5.2030   16.2736   16.2495 H       1  <0>1        0.1234
     58 H25         4.3704   14.7533   15.8447 H       1  <0>1        0.1232
     59 N5          6.4655   14.6180   15.9524 N.4     1  <0>1       -0.4000
     60 H26         6.5654   14.7931   14.9456 H       1  <0>1        0.4275
@<TRIPOS>BOND
     1     1     2    1
     2     1    34    1
     3     1    35    1
     4     1    36    1
     5     2    11   ar
     6     2     3   ar
     7     3     8   ar
     8     3     4   ar
     9     4     5   ar
    10     4    37    1
    11     5     6   ar
    12     5    21    1
    13     6     7   ar
    14     7     8   ar
    15     7    38    1
    16     8     9   ar
    17     9    10   ar
    18     9    39    1
    19    10    11   ar
    20    10    13    1
    21    11    12    2
    22    13    18   ar
    23    13    14   ar
    24    14    15   ar
    25    14    20    1
    26    15    16   ar
    27    15    40    1
    28    16    17   ar
    29    16    41    1
    30    17    18   ar
    31    17    42    1
    32    18    19    1
    33    21    22    1
    34    21    43    1
    35    22    27   ar
    36    22    23   ar
    37    23    24   ar
    38    23    44    1
    39    24    25   ar
    40    24    45    1
    41    25    26   ar
    42    25    28    1
    43    26    27   ar
    44    26    46    1
    45    27    47    1
    46    28    32    1
    47    28    29    1
    48    29    30    1
    49    29    48    1
    50    29    49    1
    51    30    50    1
    52    30    51    1
    53    30    59    1
    54    31    32    1
    55    31    52    1
    56    31    53    1
    57    31    59    1
    58    32    54    1
    59    32    55    1
    60    33    56    1
    61    33    57    1
    62    33    58    1
    63    33    59    1
    64    59    60    1
@<TRIPOS>MOLECULE
ZINC03815495
 60 63 0 0 0
SMALL
USER_CHARGES

@<TRIPOS>ATOM
      1 C1          5.3795   19.7116   18.0775 C.3     1  <0>1       -0.1896
      2 C2          4.4683   18.5572   18.4990 C.3     1  <0>1       -0.0080
      3 C3          5.2540   18.3952   20.7835 C.3     1  <0>1       -0.0062
      4 C4          6.3737   17.7625   21.6122 C.3     1  <0>1       -0.1926
      5 C5          4.5110   16.4089   19.6151 C.3     1  <0>1        0.1679
      6 O1          5.4595   15.4477   20.0825 O.3     1  <0>1       -0.2871
      7 C6          6.3503   14.9673   19.1743 C.ar    1  <0>1        0.0584
      8 C7          7.3516   14.0967   19.5790 C.ar    1  <0>1       -0.1002
      9 C8          8.2571   13.6091   18.6575 C.ar    1  <0>1       -0.0670
     10 C9          8.1648   13.9900   17.3253 C.ar    1  <0>1        0.1593
     11 C10         7.1619   14.8613   16.9209 C.ar    1  <0>1       -0.1025
     12 C11         6.2575   15.3483   17.8437 C.ar    1  <0>1       -0.1974
     13 N1          9.0829   13.4964   16.3904 N.pl3   1  <0>1       -0.6311
     14 C12         9.5917   12.2197   16.5297 C.ar    1  <0>1        0.6019
     15 N2          9.1494   11.4595   17.5259 N.ar    1  <0>1       -0.5762
     16 C13         9.6031   10.2331   17.7026 C.ar    1  <0>1        0.2634
     17 C14        10.5696    9.7397   16.8129 C.ar    1  <0>1       -0.2638
     18 C15        11.0933    8.4340   16.9506 C.ar    1  <0>1        0.0193
     19 C16        12.0346    7.9987   16.0566 C.ar    1  <0>1       -0.1471
     20 C17        12.4746    8.8927   14.9834 C.ar    1  <0>1        0.5538
     21 O2         13.3113    8.5133   14.1835 O.2     1  <0>1       -0.4913
     22 N3         11.9584   10.1321   14.8761 N.ar    1  <0>1       -0.5052
     23 C18        11.0149   10.5769   15.7674 C.ar    1  <0>1        0.4665
     24 N4         10.4983   11.7964   15.6626 N.ar    1  <0>1       -0.5897
     25 C19        12.4088   11.0142   13.7966 C.3     1  <0>1        0.0685
     26 C20        12.6031    6.6356   16.1743 C.ar    1  <0>1       -0.0183
     27 C21        13.7499    6.4184   16.9390 C.ar    1  <0>1       -0.0054
     28 C22        14.2724    5.1444   17.0480 C.ar    1  <0>1       -0.1050
     29 C23        13.6669    4.0870   16.3935 C.ar    1  <0>1       -0.0837
     30 C24        12.5328    4.2964   15.6295 C.ar    1  <0>1       -0.1050
     31 C25        11.9975    5.5645   15.5161 C.ar    1  <0>1       -0.0057
     32 Cl1        10.5746    5.8255   14.5564 Cl      1  <0>1       -0.0506
     33 Cl2        14.5152    7.7453   17.7559 Cl      1  <0>1       -0.0508
     34 H1          5.6570   20.2948   18.9557 H       1  <0>1        0.0819
     35 H2          6.2784   19.3122   17.6079 H       1  <0>1        0.0806
     36 H3          4.8525   20.3504   17.3688 H       1  <0>1        0.1094
     37 H4          4.2139   17.9574   17.6250 H       1  <0>1        0.1282
     38 H5          3.5568   18.9573   18.9429 H       1  <0>1        0.1371
     39 H6          5.4696   19.4523   20.6285 H       1  <0>1        0.1290
     40 H7          4.3069   18.2914   21.3130 H       1  <0>1        0.1328
     41 H8          6.4113   18.2357   22.5935 H       1  <0>1        0.1040
     42 H9          6.1804   16.6963   21.7303 H       1  <0>1        0.0922
     43 H10         7.3271   17.9048   21.1035 H       1  <0>1        0.0759
     44 H11         4.1248   16.0961   18.6449 H       1  <0>1        0.1324
     45 H12         3.6886   16.4836   20.3266 H       1  <0>1        0.1745
     46 H13         7.4232   13.8005   20.6151 H       1  <0>1        0.1446
     47 H14         9.0395   12.9350   18.9736 H       1  <0>1        0.1564
     48 H15         7.0893   15.1578   15.8849 H       1  <0>1        0.1387
     49 H16         5.4774   16.0259   17.5294 H       1  <0>1        0.1238
     50 H17         9.3616   14.0509   15.6449 H       1  <0>1        0.4296
     51 H18         9.2379    9.6218   18.5146 H       1  <0>1        0.1909
     52 H19        10.7562    7.7896   17.7491 H       1  <0>1        0.1534
     53 H20        13.2655   11.5962   14.1364 H       1  <0>1        0.0765
     54 H21        12.6966   10.4142   12.9333 H       1  <0>1        0.0948
     55 H22        11.5994   11.6885   13.5168 H       1  <0>1        0.0947
     56 H23        15.1576    4.9741   17.6429 H       1  <0>1        0.1455
     57 H24        14.0815    3.0933   16.4789 H       1  <0>1        0.1475
     58 H25        12.0653    3.4667   15.1203 H       1  <0>1        0.1455
     59 N5          5.1914   17.7133   19.4736 N.4     1  <0>1       -0.4263
     60 H26         6.1473   17.5557   19.1336 H       1  <0>1        0.4270
@<TRIPOS>BOND
     1     1     2    1
     2     1    34    1
     3     1    35    1
     4     1    36    1
     5     2    37    1
     6     2    38    1
     7     2    59    1
     8     3     4    1
     9     3    39    1
    10     3    40    1
    11     3    59    1
    12     4    41    1
    13     4    42    1
    14     4    43    1
    15     5     6    1
    16     5    44    1
    17     5    45    1
    18     5    59    1
    19     6     7    1
    20     7    12   ar
    21     7     8   ar
    22     8     9   ar
    23     8    46    1
    24     9    10   ar
    25     9    47    1
    26    10    11   ar
    27    10    13    1
    28    11    12   ar
    29    11    48    1
    30    12    49    1
    31    13    14    1
    32    13    50    1
    33    14    24   ar
    34    14    15   ar
    35    15    16   ar
    36    16    17   ar
    37    16    51    1
    38    17    23   ar
    39    17    18   ar
    40    18    19   ar
    41    18    52    1
    42    19    20   ar
    43    19    26    1
    44    20    21    2
    45    20    22   ar
    46    22    23   ar
    47    22    25    1
    48    23    24   ar
    49    25    53    1
    50    25    54    1
    51    25    55    1
    52    26    31   ar
    53    26    27   ar
    54    27    28   ar
    55    27    33    1
    56    28    29   ar
    57    28    56    1
    58    29    30   ar
    59    29    57    1
    60    30    31   ar
    61    30    58    1
    62    31    32    1
    63    59    60    1
@<TRIPOS>MOLECULE
ZINC03815496
 64 67 0 0 0
SMALL
USER_CHARGES

@<TRIPOS>ATOM
      1 C1          4.1084   20.1912   21.8197 C.3     1  <0>1       -0.0233
      2 C2          5.6213   20.0844   21.6185 C.3     1  <0>1       -0.0019
      3 N1          5.9081   19.0837   20.5820 N.4     1  <0>1        0.4025
      4 C3          7.3618   18.9524   20.4171 C.3     1  <0>1       -0.0019
      5 C4          7.9713   20.3299   20.1493 C.3     1  <0>1       -0.0233
      6 C5          5.3416   17.7886   20.9818 C.3     1  <0>1        0.0358
      7 C6          5.6594   16.7412   19.9127 C.3     1  <0>1        0.1303
      8 O1          7.0624   16.4697   19.9141 O.3     1  <0>1       -0.4867
      9 C7          7.5149   15.5540   19.0164 C.ar    1  <0>1        0.1209
     10 C8          8.8658   15.2432   18.9643 C.ar    1  <0>1       -0.0182
     11 C9          9.3262   14.3142   18.0523 C.ar    1  <0>1       -0.0370
     12 C10         8.4364   13.6905   17.1877 C.ar    1  <0>1        0.0338
     13 C11         7.0842   14.0018   17.2408 C.ar    1  <0>1       -0.0370
     14 C12         6.6254   14.9315   18.1531 C.ar    1  <0>1       -0.0182
     15 N2          8.9026   12.7486   16.2623 N.pl3   1  <0>1       -0.2836
     16 C13         9.9573   11.9198   16.5922 C.ar    1  <0>1        0.2214
     17 N3         10.4344   11.9536   17.8320 N.ar    1  <0>1       -0.2219
     18 C14        11.4406   11.1822   18.1980 C.ar    1  <0>1        0.0418
     19 C15        12.0039   10.3169   17.2475 C.ar    1  <0>1        0.0365
     20 C16        13.0828    9.4664   17.5798 C.ar    1  <0>1       -0.0366
     21 C17        13.5975    8.6400   16.6171 C.ar    1  <0>1        0.0502
     22 C18        13.0201    8.6570   15.2713 C.ar    1  <0>1        0.2604
     23 O2         13.4715    7.9247   14.4089 O.2     1  <0>1       -0.2670
     24 N4         11.9920    9.4779   14.9827 N.ar    1  <0>1       -0.2953
     25 C19        11.4699   10.3094   15.9410 C.ar    1  <0>1        0.1482
     26 N5         10.4521   11.1169   15.6630 N.ar    1  <0>1       -0.1961
     27 C20        11.4252    9.4826   13.6318 C.3     1  <0>1        0.0167
     28 C21        14.7286    7.7370   16.9338 C.ar    1  <0>1        0.0239
     29 C22        16.0428    8.1708   16.7546 C.ar    1  <0>1        0.0502
     30 C23        17.0927    7.3255   17.0558 C.ar    1  <0>1       -0.0427
     31 C24        16.8438    6.0483   17.5250 C.ar    1  <0>1       -0.0590
     32 C25        15.5434    5.6103   17.6999 C.ar    1  <0>1       -0.0427
     33 C26        14.4844    6.4473   17.4071 C.ar    1  <0>1        0.0502
     34 Cl1        12.8531    5.8955   17.6266 Cl      1  <0>1       -0.0829
     35 Cl2        16.3573    9.7709   16.1595 Cl      1  <0>1       -0.0829
     36 O3          5.3099   19.5077   19.3160 O.3     1  <0>1       -0.3399
     37 H1          3.6283   20.3987   20.8633 H       1  <0>1        0.0281
     38 H2          3.7280   19.2518   22.2208 H       1  <0>1        0.0281
     39 H3          3.8908   20.9991   22.5183 H       1  <0>1        0.0281
     40 H4          6.0919   19.7833   22.5544 H       1  <0>1        0.0823
     41 H5          6.0157   21.0522   21.3083 H       1  <0>1        0.0823
     42 H6          7.7943   18.5341   21.3259 H       1  <0>1        0.0823
     43 H7          7.5739   18.2916   19.5764 H       1  <0>1        0.0823
     44 H8          9.0500   20.2324   20.0270 H       1  <0>1        0.0281
     45 H9          7.5388   20.7481   19.2404 H       1  <0>1        0.0281
     46 H10         7.7593   20.9906   20.9900 H       1  <0>1        0.0281
     47 H11         4.2608   17.8822   21.0887 H       1  <0>1        0.0859
     48 H12         5.7755   17.4803   21.9329 H       1  <0>1        0.0859
     49 H13         5.3635   17.1193   18.9342 H       1  <0>1        0.0751
     50 H14         5.1116   15.8239   20.1286 H       1  <0>1        0.0751
     51 H15         9.5577   15.7284   19.6369 H       1  <0>1        0.0655
     52 H16        10.3787   14.0759   18.0086 H       1  <0>1        0.0637
     53 H17         6.3915   13.5170   16.5689 H       1  <0>1        0.0637
     54 H18         5.5737   15.1737   18.1945 H       1  <0>1        0.0655
     55 H19         8.4849   12.6781   15.3897 H       1  <0>1        0.1550
     56 H20        11.8220   11.2156   19.2078 H       1  <0>1        0.0838
     57 H21        13.4953    9.4687   18.5780 H       1  <0>1        0.0633
     58 H22        11.9482   10.2184   13.0209 H       1  <0>1        0.0457
     59 H23        11.5387    8.4941   13.1866 H       1  <0>1        0.0457
     60 H24        10.3670    9.7389   13.6826 H       1  <0>1        0.0457
     61 H25        18.1104    7.6613   16.9215 H       1  <0>1        0.0632
     62 H26        17.6684    5.3900   17.7555 H       1  <0>1        0.0618
     63 H27        15.3557    4.6118   18.0660 H       1  <0>1        0.0632
     64 H           5.6840   20.3629   19.0520 H       1  <0>1        0.2696
@<TRIPOS>BOND
     1     1     2    1
     2     1    37    1
     3     1    38    1
     4     1    39    1
     5     2     3    1
     6     2    40    1
     7     2    41    1
     8     3     4    1
     9     3     6    1
    10     3    36    1
    11     4     5    1
    12     4    42    1
    13     4    43    1
    14     5    44    1
    15     5    45    1
    16     5    46    1
    17     6     7    1
    18     6    47    1
    19     6    48    1
    20     7     8    1
    21     7    49    1
    22     7    50    1
    23     8     9    1
    24     9    14   ar
    25     9    10   ar
    26    10    11   ar
    27    10    51    1
    28    11    12   ar
    29    11    52    1
    30    12    13   ar
    31    12    15    1
    32    13    14   ar
    33    13    53    1
    34    14    54    1
    35    15    16    1
    36    15    55    1
    37    16    26   ar
    38    16    17   ar
    39    17    18   ar
    40    18    19   ar
    41    18    56    1
    42    19    25   ar
    43    19    20   ar
    44    20    21   ar
    45    20    57    1
    46    21    22   ar
    47    21    28    1
    48    22    23    2
    49    22    24   ar
    50    24    25   ar
    51    24    27    1
    52    25    26   ar
    53    27    58    1
    54    27    59    1
    55    27    60    1
    56    28    33   ar
    57    28    29   ar
    58    29    30   ar
    59    29    35    1
    60    30    31   ar
    61    30    61    1
    62    31    32   ar
    63    31    62    1
    64    32    33   ar
    65    32    63    1
    66    33    34    1
    67    36    64    1
@<TRIPOS>MOLECULE
ZINC03815497
 63 67 0 0 0
SMALL
USER_CHARGES

@<TRIPOS>ATOM
      1 C1         11.4259    9.4829   13.6316 C.3     1  <0>1        0.0670
      2 N1         11.9921    9.4778   14.9827 N.ar    1  <0>1       -0.5043
      3 C2         11.4699   10.3093   15.9410 C.ar    1  <0>1        0.4647
      4 C3         12.0038   10.3167   17.2479 C.ar    1  <0>1       -0.2504
      5 C4         13.0827    9.4659   17.5803 C.ar    1  <0>1        0.0083
      6 C5         13.5970    8.6392   16.6176 C.ar    1  <0>1       -0.1314
      7 C6         13.0198    8.6565   15.2717 C.ar    1  <0>1        0.5506
      8 O1         13.4710    7.9238   14.4093 O.2     1  <0>1       -0.4823
      9 C7         14.7276    7.7358   16.9344 C.ar    1  <0>1       -0.0254
     10 C8         16.0420    8.1688   16.7553 C.ar    1  <0>1       -0.0046
     11 C9         17.0915    7.3230   17.0563 C.ar    1  <0>1       -0.1040
     12 C10        16.8419    6.0459   17.5255 C.ar    1  <0>1       -0.0804
     13 C11        15.5413    5.6088   17.7007 C.ar    1  <0>1       -0.1034
     14 C12        14.4828    6.4461   17.4077 C.ar    1  <0>1       -0.0050
     15 Cl1        12.8512    5.8952   17.6271 Cl      1  <0>1       -0.0501
     16 Cl2        16.3574    9.7691   16.1608 Cl      1  <0>1       -0.0524
     17 C13        11.4407   11.1816   18.1981 C.ar    1  <0>1        0.2590
     18 N2         10.4345   11.9535   17.8318 N.ar    1  <0>1       -0.5772
     19 C14         9.9576   11.9198   16.5924 C.ar    1  <0>1        0.5925
     20 N3         10.4527   11.1170   15.6628 N.ar    1  <0>1       -0.5824
     21 N4          8.9024   12.7488   16.2625 N.pl3   1  <0>1       -0.6349
     22 C15         8.4319   13.6838   17.1892 C.ar    1  <0>1        0.2264
     23 C16         9.3151   14.2981   18.0678 C.ar    1  <0>1       -0.1136
     24 C17         8.8470   15.2210   18.9823 C.ar    1  <0>1       -0.0637
     25 C18         7.5005   15.5337   19.0240 C.ar    1  <0>1       -0.2089
     26 C19         6.6178   14.9200   18.1542 C.ar    1  <0>1       -0.0704
     27 C20         7.0802   14.0001   17.2336 C.ar    1  <0>1       -0.1499
     28 C21         6.9932   16.5409   20.0235 C.3     1  <0>1        0.0553
     29 C22         6.3334   18.8571   20.2783 C.3     1  <0>1       -0.0263
     30 C23         6.4681   20.2539   19.6674 C.3     1  <0>1       -0.0266
     31 C24         6.6146   19.2740   17.4590 C.3     1  <0>1       -0.0255
     32 C25         6.4798   17.8771   18.0699 C.3     1  <0>1       -0.0338
     33 C26         5.9540   21.5899   17.7140 C.3     1  <0>1       -0.0460
     34 H1         11.9495   10.2186   13.0210 H       1  <0>1        0.0779
     35 H2         11.5392    8.4945   13.1863 H       1  <0>1        0.0973
     36 H3         10.3677    9.7396   13.6820 H       1  <0>1        0.0949
     37 H4         13.4950    9.4679   18.5784 H       1  <0>1        0.1556
     38 H5         18.1094    7.6582   16.9217 H       1  <0>1        0.1469
     39 H6         17.6661    5.3871   17.7558 H       1  <0>1        0.1495
     40 H7         15.3532    4.6103   18.0670 H       1  <0>1        0.1472
     41 H8         11.8220   11.2151   19.2079 H       1  <0>1        0.1922
     42 H9          8.4882   12.6819   15.3880 H       1  <0>1        0.4329
     43 H10        10.3667   14.0541   18.0360 H       1  <0>1        0.1511
     44 H11         9.5331   15.6993   19.6655 H       1  <0>1        0.1351
     45 H12         5.5662   15.1631   18.1923 H       1  <0>1        0.1332
     46 H13         6.3908   13.5245   16.5517 H       1  <0>1        0.1417
     47 H14         7.6212   16.5171   20.9141 H       1  <0>1        0.1456
     48 H15         5.9665   16.2966   20.2963 H       1  <0>1        0.1429
     49 H16         6.7716   18.8528   21.2763 H       1  <0>1        0.1748
     50 H17         5.2789   18.5886   20.3429 H       1  <0>1        0.1554
     51 H18         5.9232   20.9726   20.2794 H       1  <0>1        0.1743
     52 H19         7.5209   20.5338   19.6285 H       1  <0>1        0.1550
     53 H20         6.1763   19.2782   16.4610 H       1  <0>1        0.1730
     54 H21         7.6690   19.5428   17.3943 H       1  <0>1        0.1544
     55 H22         5.4271   17.5974   18.1091 H       1  <0>1        0.1544
     56 H23         7.0245   17.1584   17.4576 H       1  <0>1        0.1764
     57 H24         6.9871   21.9340   17.6672 H       1  <0>1        0.1321
     58 H25         5.5363   21.5560   16.7077 H       1  <0>1        0.1352
     59 H26         5.3698   22.2763   18.3270 H       1  <0>1        0.1355
     60 N5          7.0625   17.8926   19.4283 N.4     1  <0>1       -0.4048
     61 H27         8.0464   18.1797   19.3662 H       1  <0>1        0.4356
     62 N6          5.8852   20.2382   18.3091 N.4     1  <0>1       -0.4063
     63 H28         4.9014   19.9507   18.3714 H       1  <0>1        0.4399
@<TRIPOS>BOND
     1     1     2    1
     2     1    34    1
     3     1    35    1
     4     1    36    1
     5     2     7   ar
     6     2     3   ar
     7     3    20   ar
     8     3     4   ar
     9     4     5   ar
    10     4    17   ar
    11     5     6   ar
    12     5    37    1
    13     6     7   ar
    14     6     9    1
    15     7     8    2
    16     9    14   ar
    17     9    10   ar
    18    10    11   ar
    19    10    16    1
    20    11    12   ar
    21    11    38    1
    22    12    13   ar
    23    12    39    1
    24    13    14   ar
    25    13    40    1
    26    14    15    1
    27    17    18   ar
    28    17    41    1
    29    18    19   ar
    30    19    20   ar
    31    19    21    1
    32    21    22    1
    33    21    42    1
    34    22    27   ar
    35    22    23   ar
    36    23    24   ar
    37    23    43    1
    38    24    25   ar
    39    24    44    1
    40    25    26   ar
    41    25    28    1
    42    26    27   ar
    43    26    45    1
    44    27    46    1
    45    28    47    1
    46    28    48    1
    47    28    60    1
    48    29    30    1
    49    29    49    1
    50    29    50    1
    51    29    60    1
    52    30    51    1
    53    30    52    1
    54    30    62    1
    55    31    32    1
    56    31    53    1
    57    31    54    1
    58    31    62    1
    59    32    55    1
    60    32    56    1
    61    32    60    1
    62    33    57    1
    63    33    58    1
    64    33    59    1
    65    33    62    1
    66    60    61    1
    67    62    63    1
@<TRIPOS>MOLECULE
ZINC03815499
 51 54 0 0 0
SMALL
USER_CHARGES

@<TRIPOS>ATOM
      1 C1         12.3399    9.7226   14.0440 C.3     1  <0>1        0.0687
      2 N1         11.7642    9.0215   15.1943 N.ar    1  <0>1       -0.5055
      3 C2         10.8159    9.6457   15.9649 C.ar    1  <0>1        0.4668
      4 C3         10.2511    8.9842   17.0768 C.ar    1  <0>1       -0.2679
      5 C4         10.6586    7.6713   17.4059 C.ar    1  <0>1        0.0218
      6 C5         11.6048    7.0561   16.6306 C.ar    1  <0>1       -0.1511
      7 C6         12.1708    7.7707   15.4845 C.ar    1  <0>1        0.5543
      8 O1         13.0134    7.2309   14.7898 O.2     1  <0>1       -0.4936
      9 C7         12.0527    5.6803   16.9490 C.ar    1  <0>1       -0.0164
     10 C8         13.1374    5.4765   17.8029 C.ar    1  <0>1       -0.0057
     11 C9         13.5474    4.1911   18.0987 C.ar    1  <0>1       -0.1053
     12 C10        12.8911    3.1075   17.5434 C.ar    1  <0>1       -0.0845
     13 C11        11.8182    3.3027   16.6924 C.ar    1  <0>1       -0.1052
     14 C12        11.3952    4.5828   16.3918 C.ar    1  <0>1       -0.0060
     15 Cl1        10.0493    4.8257   15.3227 Cl      1  <0>1       -0.0505
     16 Cl2        13.9661    6.8352   18.4962 Cl      1  <0>1       -0.0510
     17 C13         9.2842    9.6576   17.8383 C.ar    1  <0>1        0.2628
     18 N2          8.9417   10.8822   17.4845 N.ar    1  <0>1       -0.5744
     19 C14         9.4947   11.4739   16.4312 C.ar    1  <0>1        0.6040
     20 N3         10.4072   10.8769   15.6796 N.ar    1  <0>1       -0.5918
     21 N4          9.0993   12.7566   16.1049 N.pl3   1  <0>1       -0.6301
     22 C15         8.2200   13.4528   16.9431 C.ar    1  <0>1        0.1475
     23 C16         8.2731   13.2621   18.3175 C.ar    1  <0>1       -0.0704
     24 C17         7.4058   13.9495   19.1435 C.ar    1  <0>1       -0.1181
     25 C18         6.4820   14.8304   18.6007 C.ar    1  <0>1        0.0940
     26 C19         6.4282   15.0213   17.2277 C.ar    1  <0>1       -0.1787
     27 C20         7.2946   14.3345   16.4003 C.ar    1  <0>1       -0.1061
     28 O2          5.6289   15.5076   19.4148 O.3     1  <0>1       -0.3303
     29 C21         4.7037   16.3983   18.7881 C.3     1  <0>1        0.0208
     30 C22         3.8337   17.0642   19.8561 C.3     1  <0>1        0.0068
     31 H1         13.2230   10.2773   14.3613 H       1  <0>1        0.0760
     32 H2         12.6213    8.9977   13.2802 H       1  <0>1        0.0942
     33 H3         11.6039   10.4145   13.6345 H       1  <0>1        0.0949
     34 H4         10.2294    7.1607   18.2552 H       1  <0>1        0.1523
     35 H5         14.3846    4.0319   18.7620 H       1  <0>1        0.1451
     36 H6         13.2181    2.1046   17.7749 H       1  <0>1        0.1471
     37 H7         11.3103    2.4525   16.2618 H       1  <0>1        0.1451
     38 H8          8.8294    9.1840   18.6958 H       1  <0>1        0.1894
     39 H9          9.4309   13.1750   15.2949 H       1  <0>1        0.4286
     40 H10         8.9956   12.5800   18.7408 H       1  <0>1        0.1479
     41 H11         7.4470   13.8015   20.2126 H       1  <0>1        0.1369
     42 H12         5.7084   15.7071   16.8058 H       1  <0>1        0.1313
     43 H13         7.2523   14.4829   15.3314 H       1  <0>1        0.1346
     44 H14         5.2516   17.1628   18.2373 H       1  <0>1        0.0872
     45 H15         4.0699   15.8389   18.1001 H       1  <0>1        0.1089
     46 H16         3.0704   17.6751   19.3740 H       1  <0>1        0.1538
     47 H17         3.3544   16.2973   20.4645 H       1  <0>1        0.1432
     48 H18         5.1784   18.5929   20.1620 H       1  <0>1        0.4369
     49 H19         4.1211   18.3654   21.4253 H       1  <0>1        0.4420
     50 N5          4.6884   17.8966   20.7211 N.4     1  <0>1       -0.6472
     51 H20         5.3781   17.2980   21.1905 H       1  <0>1        0.4465
@<TRIPOS>BOND
     1     1     2    1
     2     1    31    1
     3     1    32    1
     4     1    33    1
     5     2     7   ar
     6     2     3   ar
     7     3    20   ar
     8     3     4   ar
     9     4     5   ar
    10     4    17   ar
    11     5     6   ar
    12     5    34    1
    13     6     7   ar
    14     6     9    1
    15     7     8    2
    16     9    14   ar
    17     9    10   ar
    18    10    11   ar
    19    10    16    1
    20    11    12   ar
    21    11    35    1
    22    12    13   ar
    23    12    36    1
    24    13    14   ar
    25    13    37    1
    26    14    15    1
    27    17    18   ar
    28    17    38    1
    29    18    19   ar
    30    19    20   ar
    31    19    21    1
    32    21    22    1
    33    21    39    1
    34    22    27   ar
    35    22    23   ar
    36    23    24   ar
    37    23    40    1
    38    24    25   ar
    39    24    41    1
    40    25    26   ar
    41    25    28    1
    42    26    27   ar
    43    26    42    1
    44    27    43    1
    45    28    29    1
    46    29    30    1
    47    29    44    1
    48    29    45    1
    49    30    46    1
    50    30    47    1
    51    30    50    1
    52    48    50    1
    53    49    50    1
    54    50    51    1
@<TRIPOS>MOLECULE
ZINC03815501
 57 60 0 0 0
SMALL
USER_CHARGES

@<TRIPOS>ATOM
      1 C1         15.3663    1.1522    8.8021 C.3     1  <0>1       -0.1911
      2 C2         15.5084    1.0569   10.3225 C.3     1  <0>1       -0.0060
      3 C3         15.4229    2.3293   12.3808 C.3     1  <0>1        0.0046
      4 C4         15.1934    3.7250   12.9640 C.3     1  <0>1        0.0244
      5 O1         13.8447    4.1282   12.7178 O.3     1  <0>1       -0.3293
      6 C5         13.4736    5.3538   13.1752 C.ar    1  <0>1        0.0952
      7 C6         12.1788    5.8074   12.9703 C.ar    1  <0>1       -0.1186
      8 C7         11.8013    7.0523   13.4335 C.ar    1  <0>1       -0.0702
      9 C8         12.7183    7.8500   14.1052 C.ar    1  <0>1        0.1464
     10 C9         14.0141    7.3951   14.3105 C.ar    1  <0>1       -0.1058
     11 C10        14.3902    6.1502   13.8461 C.ar    1  <0>1       -0.1791
     12 N1         12.3365    9.1127   14.5749 N.pl3   1  <0>1       -0.6299
     13 C11        11.0471    9.3217   15.0240 C.ar    1  <0>1        0.6043
     14 N2         10.2211    8.2838   15.1044 N.ar    1  <0>1       -0.5742
     15 C12         8.9796    8.4298   15.5270 C.ar    1  <0>1        0.2630
     16 C13         8.5413    9.7115   15.8937 C.ar    1  <0>1       -0.2683
     17 C14         7.2230    9.9309   16.3542 C.ar    1  <0>1        0.0221
     18 C15         6.8434   11.2001   16.7004 C.ar    1  <0>1       -0.1516
     19 C16         7.8085   12.2956   16.5857 C.ar    1  <0>1        0.5544
     20 O2          7.4793   13.4277   16.8919 O.2     1  <0>1       -0.4938
     21 N3          9.0583   12.0576   16.1437 N.ar    1  <0>1       -0.5055
     22 C17         9.4475   10.7891   15.7945 C.ar    1  <0>1        0.4667
     23 N4         10.6808   10.5480   15.3635 N.ar    1  <0>1       -0.5920
     24 C18        10.0121   13.1643   16.0351 C.3     1  <0>1        0.0688
     25 C19         5.4686   11.4628   17.1862 C.ar    1  <0>1       -0.0161
     26 C20         4.4575   11.7931   16.2830 C.ar    1  <0>1       -0.0058
     27 C21         3.1770   12.0325   16.7420 C.ar    1  <0>1       -0.1054
     28 C22         2.8980   11.9550   18.0946 C.ar    1  <0>1       -0.0846
     29 C23         3.8970   11.6331   18.9957 C.ar    1  <0>1       -0.1053
     30 C24         5.1806   11.3866   18.5494 C.ar    1  <0>1       -0.0060
     31 Cl1         6.4331   10.9835   19.6820 Cl      1  <0>1       -0.0505
     32 Cl2         4.8070   11.8975   14.5858 Cl      1  <0>1       -0.0509
     33 H1         15.5255    0.1687    8.3600 H       1  <0>1        0.1073
     34 H2         14.3658    1.5053    8.5522 H       1  <0>1        0.0813
     35 H3         16.1063    1.8505    8.4111 H       1  <0>1        0.0805
     36 H4         16.5088    0.7037   10.5725 H       1  <0>1        0.1306
     37 H5         14.7684    0.3586   10.7135 H       1  <0>1        0.1311
     38 H6         16.4227    1.9849   12.6450 H       1  <0>1        0.1498
     39 H7         14.6823    1.6398   12.7860 H       1  <0>1        0.1422
     40 H8         15.8759    4.4323   12.4928 H       1  <0>1        0.0864
     41 H9         15.3761    3.7043   14.0383 H       1  <0>1        0.1092
     42 H10        11.4658    5.1868   12.4478 H       1  <0>1        0.1367
     43 H11        10.7946    7.4072   13.2696 H       1  <0>1        0.1477
     44 H12        14.7277    8.0148   14.8331 H       1  <0>1        0.1343
     45 H13        15.3979    5.7961   14.0056 H       1  <0>1        0.1313
     46 H14        12.9776    9.8406   14.5851 H       1  <0>1        0.4285
     47 H15         8.3150    7.5809   15.5896 H       1  <0>1        0.1893
     48 H16         6.5256    9.1099   16.4315 H       1  <0>1        0.1522
     49 H17         9.9402   13.6098   15.0429 H       1  <0>1        0.0760
     50 H18         9.7823   13.9172   16.7890 H       1  <0>1        0.0941
     51 H19        11.0233   12.7892   16.1926 H       1  <0>1        0.0949
     52 H20         2.3926   12.2843   16.0437 H       1  <0>1        0.1450
     53 H21         1.8960   12.1468   18.4488 H       1  <0>1        0.1471
     54 H22         3.6729   11.5749   20.0506 H       1  <0>1        0.1451
     55 N5         15.2916    2.3912   10.9127 N.4     1  <0>1       -0.5214
     56 H23        14.3495    2.7197   10.6705 H       1  <0>1        0.4393
     57 H24        15.9890    3.0449   10.5376 H       1  <0>1        0.4313
@<TRIPOS>BOND
     1     1     2    1
     2     1    33    1
     3     1    34    1
     4     1    35    1
     5     2    36    1
     6     2    37    1
     7     2    55    1
     8     3     4    1
     9     3    38    1
    10     3    39    1
    11     3    55    1
    12     4     5    1
    13     4    40    1
    14     4    41    1
    15     5     6    1
    16     6    11   ar
    17     6     7   ar
    18     7     8   ar
    19     7    42    1
    20     8     9   ar
    21     8    43    1
    22     9    10   ar
    23     9    12    1
    24    10    11   ar
    25    10    44    1
    26    11    45    1
    27    12    13    1
    28    12    46    1
    29    13    23   ar
    30    13    14   ar
    31    14    15   ar
    32    15    16   ar
    33    15    47    1
    34    16    22   ar
    35    16    17   ar
    36    17    18   ar
    37    17    48    1
    38    18    19   ar
    39    18    25    1
    40    19    20    2
    41    19    21   ar
    42    21    22   ar
    43    21    24    1
    44    22    23   ar
    45    24    49    1
    46    24    50    1
    47    24    51    1
    48    25    30   ar
    49    25    26   ar
    50    26    27   ar
    51    26    32    1
    52    27    28   ar
    53    27    52    1
    54    28    29   ar
    55    28    53    1
    56    29    30   ar
    57    29    54    1
    58    30    31    1
    59    55    56    1
    60    55    57    1
@<TRIPOS>MOLECULE
ZINC03815504
 38 40 0 0 0
SMALL
USER_CHARGES

@<TRIPOS>ATOM
      1 C1         13.0270   12.3946   12.5067 C.3     1  <0>1       -0.0380
      2 C2         11.9140   12.6604   13.4872 C.ar    1  <0>1       -0.0294
      3 C3         12.0133   13.3856   14.6292 C.ar    1  <0>1        0.0053
      4 N1         10.8045   13.4065   15.2450 N.ar    1  <0>1       -0.3606
      5 H1         10.6017   13.8591   16.0786 H       1  <0>1        0.1653
      6 C4          9.9138   12.6740   14.4901 C.ar    1  <0>1        0.0434
      7 C5         10.5993   12.2030   13.3808 C.ar    1  <0>1       -0.0193
      8 C6         10.0323   11.3574   12.2696 C.3     1  <0>1       -0.0154
      9 C7          9.4843   12.2653   11.1667 C.3     1  <0>1        0.0488
     10 C8          8.9173   11.4197   10.0556 C.2     1  <0>1        0.3050
     11 O1          8.9481   10.2146   10.1374 O.2     1  <0>1       -0.2510
     12 C9          8.5538   12.4498   14.7880 C.2     1  <0>1       -0.0253
     13 C10         8.1437   12.3394   16.1029 C.2     1  <0>1        0.0479
     14 C11         6.7553   12.2671   16.6096 C.ar    1  <0>1        0.0094
     15 C12         5.5113   12.2701   15.9865 C.ar    1  <0>1       -0.0381
     16 C13         4.3637   12.1792   16.7491 C.ar    1  <0>1        0.0186
     17 C14         4.4525   12.0790   18.1285 C.ar    1  <0>1       -0.0460
     18 C15         5.6821   12.0684   18.7548 C.ar    1  <0>1       -0.0388
     19 C16         6.8489   12.1591   18.0037 C.ar    1  <0>1        0.0416
     20 N2          8.1885   12.1709   18.3731 N.am    1  <0>1       -0.2809
     21 C17         8.9913   12.2748   17.3003 C.2     1  <0>1        0.2490
     22 O2         10.2090   12.3100   17.3182 O.2     1  <0>1       -0.2698
     23 Br1         2.6690   12.1919   15.9102 Br      1  <0>1       -0.0503
     24 H2         13.0415   13.1806   11.7517 H       1  <0>1        0.0278
     25 H3         13.9806   12.3801   13.0345 H       1  <0>1        0.0278
     26 H4         12.8638   11.4307   12.0245 H       1  <0>1        0.0278
     27 H5         12.9088   13.8712   14.9880 H       1  <0>1        0.0810
     28 H6         10.8171   10.7215   11.8602 H       1  <0>1        0.0319
     29 H7          9.2275   10.7351   12.6610 H       1  <0>1        0.0319
     30 H8          8.6994   12.9013   11.5760 H       1  <0>1        0.0381
     31 H9         10.2889   12.8877   10.7752 H       1  <0>1        0.0381
     32 H10         7.8320   12.3690   13.9887 H       1  <0>1        0.0646
     33 H11         5.4434   12.3480   14.9114 H       1  <0>1        0.0635
     34 H12         3.5508   12.0083   18.7188 H       1  <0>1        0.0629
     35 H13         5.7382   11.9900   19.8305 H       1  <0>1        0.0637
     36 H14         8.5040   12.1122   19.2885 H       1  <0>1        0.1552
     37 O3          8.3778   12.0054    8.9750 O.3     1  <0>1       -0.4806
     38 H           8.3538   12.9399    8.9115 H       1  <0>1        0.2951
@<TRIPOS>BOND
     1     1     2    1
     2     1    24    1
     3     1    25    1
     4     1    26    1
     5     2     7   ar
     6     2     3   ar
     7     3     4   ar
     8     3    27    1
     9     4     5    1
    10     4     6   ar
    11     6     7   ar
    12     6    12    1
    13     7     8    1
    14     8     9    1
    15     8    28    1
    16     8    29    1
    17     9    10    1
    18     9    30    1
    19     9    31    1
    20    10    11    2
    21    10    37    1
    22    12    13    2
    23    12    32    1
    24    13    21    1
    25    13    14    1
    26    14    19   ar
    27    14    15   ar
    28    15    16   ar
    29    15    33    1
    30    16    17   ar
    31    16    23    1
    32    17    18   ar
    33    17    34    1
    34    18    19   ar
    35    18    35    1
    36    19    20    1
    37    20    21   am
    38    20    36    1
    39    21    22    2
    40    37    38    1
@<TRIPOS>MOLECULE
ZINC03815505
 63 65 0 0 0
SMALL
USER_CHARGES

@<TRIPOS>ATOM
      1 C1         25.2241    5.9803   14.9221 C.3     1  <0>1       -0.1917
      2 C2         23.8187    6.3689   14.4588 C.3     1  <0>1       -0.0085
      3 C3         24.0024    8.6214   15.3279 C.3     1  <0>1       -0.0137
      4 C4         23.7313    9.4335   16.5959 C.3     1  <0>1       -0.1885
      5 C5         21.8270    7.5798   15.1143 C.3     1  <0>1       -0.0091
      6 C6         21.0171    6.3968   15.6483 C.3     1  <0>1       -0.1495
      7 C7         19.5236    6.6843   15.4814 C.3     1  <0>1       -0.1153
      8 C8         18.7137    5.5012   16.0155 C.3     1  <0>1       -0.1364
      9 C9         17.2203    5.7888   15.8484 C.3     1  <0>1        0.1069
     10 N1         16.4447    4.6560   16.3598 N.pl3   1  <0>1       -0.7058
     11 C10        15.0585    4.6876   16.3146 C.ar    1  <0>1        0.4707
     12 C11        14.4202    5.7993   15.7825 C.ar    1  <0>1       -0.2570
     13 C12        13.0316    5.8185   15.7377 C.ar    1  <0>1        0.3267
     14 C13        12.3291    4.7041   16.2473 C.ar    1  <0>1       -0.1546
     15 C14        10.9143    4.6899   16.2228 C.ar    1  <0>1       -0.0202
     16 C15        10.2465    5.7665   15.7060 C.ar    1  <0>1       -0.0888
     17 C16        11.0054    6.9082   15.1901 C.ar    1  <0>1        0.5414
     18 O1         10.4165    7.8696   14.7288 O.2     1  <0>1       -0.4495
     19 N2         12.3524    6.8995   15.2244 N.ar    1  <0>1       -0.5107
     20 C17        13.1000    8.0474   14.7053 C.3     1  <0>1        0.0437
     21 C18         8.7656    5.7772   15.6678 C.ar    1  <0>1       -0.0463
     22 C19         8.0897    5.2772   14.5541 C.ar    1  <0>1       -0.0021
     23 C20         6.7088    5.2852   14.5271 C.ar    1  <0>1       -0.1011
     24 C21         5.9961    5.7971   15.5965 C.ar    1  <0>1       -0.0716
     25 C22         6.6602    6.2994   16.7012 C.ar    1  <0>1       -0.1011
     26 C23         8.0406    6.2925   16.7431 C.ar    1  <0>1       -0.0022
     27 Cl1         8.8720    6.9238   18.1300 Cl      1  <0>1       -0.0489
     28 Cl2         8.9824    4.6411   13.2079 Cl      1  <0>1       -0.0489
     29 C24        13.0530    3.6243   16.7670 C.ar    1  <0>1        0.2318
     30 H1         25.8591    6.8661   14.9390 H       1  <0>1        0.0822
     31 H2         25.1712    5.5521   15.9231 H       1  <0>1        0.0801
     32 H3         25.6432    5.2458   14.2344 H       1  <0>1        0.1080
     33 H4         23.1838    5.4832   14.4419 H       1  <0>1        0.1263
     34 H5         23.8716    6.7971   13.4578 H       1  <0>1        0.1315
     35 H6         25.0689    8.4084   15.2539 H       1  <0>1        0.1332
     36 H7         23.6846    9.1927   14.4557 H       1  <0>1        0.1320
     37 H8         22.6813    9.7247   16.6233 H       1  <0>1        0.0780
     38 H9         23.9633    8.8277   17.4719 H       1  <0>1        0.0795
     39 H10        24.3562   10.3266   16.5959 H       1  <0>1        0.1086
     40 H11        21.6715    7.6710   14.0393 H       1  <0>1        0.1325
     41 H12        21.5011    8.4956   15.6075 H       1  <0>1        0.1305
     42 H13        21.2428    6.2491   16.7044 H       1  <0>1        0.0880
     43 H14        21.2783    5.4968   15.0917 H       1  <0>1        0.0893
     44 H15        19.2980    6.8320   14.4253 H       1  <0>1        0.0827
     45 H16        19.2625    7.5844   16.0381 H       1  <0>1        0.0822
     46 H17        18.9394    5.3536   17.0715 H       1  <0>1        0.0820
     47 H18        18.9748    4.6013   15.4588 H       1  <0>1        0.0820
     48 H19        16.9945    5.9365   14.7924 H       1  <0>1        0.0897
     49 H20        16.9590    6.6888   16.4051 H       1  <0>1        0.0896
     50 H21        16.9004    3.8839   16.7300 H       1  <0>1        0.4201
     51 H22        14.9933    6.6337   15.4058 H       1  <0>1        0.1840
     52 H23        10.3688    3.8404   16.6067 H       1  <0>1        0.1693
     53 H24        12.4018    8.7999   14.3385 H       1  <0>1        0.1193
     54 H25        13.7091    8.4746   15.5019 H       1  <0>1        0.0916
     55 H26        13.7452    7.7221   13.8893 H       1  <0>1        0.0914
     56 H27         6.1844    4.8949   13.6675 H       1  <0>1        0.1508
     57 H28         4.9165    5.8048   15.5688 H       1  <0>1        0.1534
     58 H29         6.0978    6.6976   17.5328 H       1  <0>1        0.1508
     59 H30        12.5296    2.7638   17.1569 H       1  <0>1        0.2121
     60 N3         23.2562    7.3483   15.4123 N.4     1  <0>1       -0.3979
     61 H31        23.3419    6.9739   16.3644 H       1  <0>1        0.4248
     62 N4         14.4089    3.5883   16.8131 N.ar    1  <0>1       -0.5502
     63 H32        14.9184    2.7846   17.1987 H       1  <0>1        0.4731
@<TRIPOS>BOND
     1     1     2    1
     2     1    30    1
     3     1    31    1
     4     1    32    1
     5     2    33    1
     6     2    34    1
     7     2    60    1
     8     3     4    1
     9     3    35    1
    10     3    36    1
    11     3    60    1
    12     4    37    1
    13     4    38    1
    14     4    39    1
    15     5     6    1
    16     5    40    1
    17     5    41    1
    18     5    60    1
    19     6     7    1
    20     6    42    1
    21     6    43    1
    22     7     8    1
    23     7    44    1
    24     7    45    1
    25     8     9    1
    26     8    46    1
    27     8    47    1
    28     9    10    1
    29     9    48    1
    30     9    49    1
    31    10    11    1
    32    10    50    1
    33    11    12   ar
    34    11    62   ar
    35    12    13   ar
    36    12    51    1
    37    13    19   ar
    38    13    14   ar
    39    14    15   ar
    40    14    29   ar
    41    15    16   ar
    42    15    52    1
    43    16    17   ar
    44    16    21    1
    45    17    18    2
    46    17    19   ar
    47    19    20    1
    48    20    53    1
    49    20    54    1
    50    20    55    1
    51    21    26   ar
    52    21    22   ar
    53    22    23   ar
    54    22    28    1
    55    23    24   ar
    56    23    56    1
    57    24    25   ar
    58    24    57    1
    59    25    26   ar
    60    25    58    1
    61    26    27    1
    62    29    59    1
    63    29    62   ar
    64    60    61    1
    65    62    63    1
@<TRIPOS>MOLECULE
ZINC03815508
 69 71 0 0 0
SMALL
USER_CHARGES

@<TRIPOS>ATOM
      1 C1         17.0120    2.2971   15.7344 C.3     1  <0>1       -0.1901
      2 C2         16.6499    3.6946   15.2275 C.3     1  <0>1       -0.0100
      3 C3         17.8258    4.8062   17.0287 C.3     1  <0>1       -0.0121
      4 C4         17.6022    5.3401   18.4450 C.3     1  <0>1       -0.1894
      5 C5         15.9538    5.8985   15.9493 C.3     1  <0>1       -0.0022
      6 C6         14.4486    5.7365   15.7276 C.3     1  <0>1       -0.1658
      7 C7         13.8293    7.1006   15.4168 C.3     1  <0>1        0.1446
      8 N1         12.3880    6.9454   15.2045 N.pl3   1  <0>1       -0.7011
      9 C8         11.6106    8.0489   14.9078 C.ar    1  <0>1        0.5901
     10 N2         12.1984    9.2407   14.8270 N.ar    1  <0>1       -0.5747
     11 C9         11.5083   10.3293   14.5529 C.ar    1  <0>1        0.2674
     12 C10        10.1235   10.2103   14.3446 C.ar    1  <0>1       -0.2888
     13 C11         9.3193   11.3233   14.0488 C.ar    1  <0>1        0.0467
     14 C12         7.9629   11.1125   13.8592 C.ar    1  <0>1       -0.1579
     15 C13         7.4419    9.8055   13.9680 C.ar    1  <0>1        0.4886
     16 N3          8.2169    8.7772   14.2465 N.ar    1  <0>1       -0.4745
     17 C14         9.5291    8.9246   14.4383 C.ar    1  <0>1        0.4306
     18 N4         10.3154    7.8787   14.7218 N.ar    1  <0>1       -0.5572
     19 N5          6.0834    9.5986   13.7770 N.am    1  <0>1       -0.6588
     20 C15         5.5701    8.3564   13.8774 C.2     1  <0>1        0.6933
     21 O1          6.2975    7.4172   14.1353 O.2     1  <0>1       -0.5052
     22 N6          4.2503    8.1556   13.6917 N.am    1  <0>1       -0.7335
     23 C16         3.6925    6.8054   13.8010 C.3     1  <0>1        0.1878
     24 C17         3.9561    6.2567   15.2046 C.3     1  <0>1       -0.1657
     25 C18         2.1844    6.8547   13.5476 C.3     1  <0>1       -0.1566
     26 C19         4.3542    5.8949   12.7647 C.3     1  <0>1       -0.1657
     27 C20         7.0662   12.2508   13.5451 C.ar    1  <0>1       -0.0455
     28 C21         6.4464   12.9588   14.5747 C.ar    1  <0>1       -0.0130
     29 C22         5.6164   14.0217   14.2757 C.ar    1  <0>1       -0.1033
     30 C23         5.3910   14.3776   12.9583 C.ar    1  <0>1       -0.0808
     31 C24         5.9981   13.6758   11.9325 C.ar    1  <0>1       -0.1033
     32 C25         6.8344   12.6144   12.2186 C.ar    1  <0>1       -0.0129
     33 Cl1         7.5950   11.7344   10.9298 Cl      1  <0>1       -0.0433
     34 Cl2         6.7224   12.5092   16.2286 Cl      1  <0>1       -0.0434
     35 H1         16.2312    1.9408   16.4062 H       1  <0>1        0.0802
     36 H2         17.1022    1.6159   14.8883 H       1  <0>1        0.1064
     37 H3         17.9605    2.3393   16.2697 H       1  <0>1        0.0803
     38 H4         15.7014    3.6525   14.6921 H       1  <0>1        0.1286
     39 H5         17.4308    4.0510   14.5557 H       1  <0>1        0.1315
     40 H6         18.3536    3.8538   17.0785 H       1  <0>1        0.1313
     41 H7         18.4201    5.5217   16.4603 H       1  <0>1        0.1319
     42 H8         16.9326    4.6699   18.9844 H       1  <0>1        0.0794
     43 H9         18.5574    5.3968   18.9669 H       1  <0>1        0.1064
     44 H10        17.1570    6.3336   18.3926 H       1  <0>1        0.0803
     45 H11        16.4250    6.2221   15.0213 H       1  <0>1        0.1364
     46 H12        16.1286    6.6441   16.7249 H       1  <0>1        0.1343
     47 H13        13.9909    5.3261   16.6276 H       1  <0>1        0.0940
     48 H14        14.2754    5.0597   14.8908 H       1  <0>1        0.0950
     49 H15        14.2870    7.5110   14.5168 H       1  <0>1        0.0783
     50 H16        14.0024    7.7773   16.2536 H       1  <0>1        0.0780
     51 H17        11.9795    6.0683   15.2720 H       1  <0>1        0.4176
     52 H18        11.9958   11.2908   14.4895 H       1  <0>1        0.1819
     53 H19         9.7449   12.3128   13.9711 H       1  <0>1        0.1535
     54 H20         5.5029   10.3481   13.5712 H       1  <0>1        0.4134
     55 H21         3.6700    8.9051   13.4859 H       1  <0>1        0.3952
     56 H22         3.4846    6.9054   15.9428 H       1  <0>1        0.0534
     57 H23         3.5410    5.2521   15.2858 H       1  <0>1        0.0648
     58 H24         5.0304    6.2215   15.3851 H       1  <0>1        0.0799
     59 H25         1.9965    7.2457   12.5476 H       1  <0>1        0.0632
     60 H26         1.7693    5.8501   13.6288 H       1  <0>1        0.0777
     61 H27         1.7129    7.5034   14.2858 H       1  <0>1        0.0632
     62 H28         5.4286    5.8598   12.9453 H       1  <0>1        0.0800
     63 H29         3.9391    4.8903   12.8460 H       1  <0>1        0.0648
     64 H30         4.1664    6.2858   11.7648 H       1  <0>1        0.0534
     65 H31         5.1395   14.5736   15.0721 H       1  <0>1        0.1469
     66 H32         4.7379   15.2068   12.7295 H       1  <0>1        0.1488
     67 H33         5.8181   13.9585   10.9059 H       1  <0>1        0.1469
     68 N7         16.5103    4.6009   16.3867 N.4     1  <0>1       -0.3971
     69 H34        15.8698    4.1757   17.0673 H       1  <0>1        0.4257
@<TRIPOS>BOND
     1     1     2    1
     2     1    35    1
     3     1    36    1
     4     1    37    1
     5     2    38    1
     6     2    39    1
     7     2    68    1
     8     3     4    1
     9     3    40    1
    10     3    41    1
    11     3    68    1
    12     4    42    1
    13     4    43    1
    14     4    44    1
    15     5     6    1
    16     5    45    1
    17     5    46    1
    18     5    68    1
    19     6     7    1
    20     6    47    1
    21     6    48    1
    22     7     8    1
    23     7    49    1
    24     7    50    1
    25     8     9    1
    26     8    51    1
    27     9    18   ar
    28     9    10   ar
    29    10    11   ar
    30    11    12   ar
    31    11    52    1
    32    12    17   ar
    33    12    13   ar
    34    13    14   ar
    35    13    53    1
    36    14    15   ar
    37    14    27    1
    38    15    16   ar
    39    15    19    1
    40    16    17   ar
    41    17    18   ar
    42    19    20   am
    43    19    54    1
    44    20    21    2
    45    20    22   am
    46    22    23    1
    47    22    55    1
    48    23    24    1
    49    23    25    1
    50    23    26    1
    51    24    56    1
    52    24    57    1
    53    24    58    1
    54    25    59    1
    55    25    60    1
    56    25    61    1
    57    26    62    1
    58    26    63    1
    59    26    64    1
    60    27    32   ar
    61    27    28   ar
    62    28    29   ar
    63    28    34    1
    64    29    30   ar
    65    29    65    1
    66    30    31   ar
    67    30    66    1
    68    31    32   ar
    69    31    67    1
    70    32    33    1
    71    68    69    1
@<TRIPOS>MOLECULE
ZINC03815509
 63 66 0 0 0
SMALL
USER_CHARGES

@<TRIPOS>ATOM
      1 C1         11.5228    9.4471   12.7979 C.3     1  <0>1       -0.1632
      2 C2         12.3514    9.7283   14.0530 C.3     1  <0>1        0.0962
      3 N1         11.7643    9.0216   15.1942 N.ar    1  <0>1       -0.5037
      4 C3         10.8108    9.6433   15.9603 C.ar    1  <0>1        0.4630
      5 C4         10.2358    8.9766   17.0640 C.ar    1  <0>1       -0.2622
      6 C5         10.6379    7.6611   17.3889 C.ar    1  <0>1       -0.0004
      7 C6         11.5898    7.0487   16.6183 C.ar    1  <0>1       -0.1363
      8 C7         12.1661    7.7684   15.4807 C.ar    1  <0>1        0.5461
      9 O1         13.0134    7.2309   14.7899 O.2     1  <0>1       -0.4933
     10 C8         12.0325    5.6700   16.9326 C.ar    1  <0>1       -0.0396
     11 C9         13.3475    5.4304   17.3298 C.ar    1  <0>1       -0.0878
     12 C10        13.7525    4.1450   17.6262 C.ar    1  <0>1       -0.1182
     13 C11        12.8598    3.0936   17.5188 C.ar    1  <0>1       -0.1100
     14 C12        11.5554    3.3243   17.1203 C.ar    1  <0>1       -0.1196
     15 C13        11.1371    4.6061   16.8267 C.ar    1  <0>1       -0.1012
     16 C14         9.2641    9.6475   17.8218 C.ar    1  <0>1        0.2587
     17 N2          8.9268   10.8746   17.4723 N.ar    1  <0>1       -0.5765
     18 C15         9.4893   11.4711   16.4268 C.ar    1  <0>1        0.5987
     19 N3         10.4064   10.8766   15.6788 N.ar    1  <0>1       -0.5877
     20 N4          9.0993   12.7565   16.1049 N.pl3   1  <0>1       -0.6317
     21 C16         8.1732   13.4297   16.9109 C.ar    1  <0>1        0.1600
     22 C17         8.1547   13.2082   18.2817 C.ar    1  <0>1       -0.0673
     23 C18         7.2413   13.8728   19.0759 C.ar    1  <0>1       -0.1002
     24 C19         6.3421   14.7615   18.5048 C.ar    1  <0>1        0.0580
     25 C20         6.3603   14.9836   17.1356 C.ar    1  <0>1       -0.1972
     26 C21         7.2727   14.3195   16.3399 C.ar    1  <0>1       -0.1031
     27 O2          5.4430   15.4155   19.2875 O.3     1  <0>1       -0.2871
     28 C22         4.6077   16.3822   18.6473 C.3     1  <0>1        0.1679
     29 C23         4.8114   18.3757   17.2881 C.3     1  <0>1       -0.0080
     30 C24         5.8396   19.3974   16.7984 C.3     1  <0>1       -0.1896
     31 C25         5.4448   18.4334   19.6244 C.3     1  <0>1       -0.0062
     32 C26         6.4567   17.8227   20.5960 C.3     1  <0>1       -0.1925
     33 H1         11.9596    9.9729   11.9489 H       1  <0>1        0.0786
     34 H2         11.5179    8.3756   12.5984 H       1  <0>1        0.0621
     35 H3         10.5007    9.7926   12.9525 H       1  <0>1        0.0582
     36 H4         12.3563   10.7999   14.2526 H       1  <0>1        0.1001
     37 H5         13.3735    9.3828   13.8985 H       1  <0>1        0.0999
     38 H6         10.2014    7.1469   18.2323 H       1  <0>1        0.1532
     39 H7         14.0466    6.2498   17.4093 H       1  <0>1        0.1204
     40 H8         14.7694    3.9588   17.9386 H       1  <0>1        0.1264
     41 H9         13.1825    2.0887   17.7475 H       1  <0>1        0.1253
     42 H10        10.8630    2.4995   17.0382 H       1  <0>1        0.1266
     43 H11        10.1184    4.7851   16.5159 H       1  <0>1        0.1229
     44 H12         8.8016    9.1697   18.6728 H       1  <0>1        0.1900
     45 H13         9.4671   13.1928   15.3205 H       1  <0>1        0.4292
     46 H14         8.8576   12.5197   18.7270 H       1  <0>1        0.1562
     47 H15         7.2270   13.7009   20.1420 H       1  <0>1        0.1445
     48 H16         5.6602   15.6760   16.6918 H       1  <0>1        0.1237
     49 H17         7.2867   14.4926   15.2740 H       1  <0>1        0.1385
     50 H18         4.2545   15.9841   17.6960 H       1  <0>1        0.1324
     51 H19         3.7541   16.6055   19.2871 H       1  <0>1        0.1744
     52 H20         4.5594   17.6952   16.4747 H       1  <0>1        0.1282
     53 H21         3.9121   18.8952   17.6189 H       1  <0>1        0.1371
     54 H22         5.4108   19.9834   15.9856 H       1  <0>1        0.1094
     55 H23         6.1127   20.0601   17.6195 H       1  <0>1        0.0819
     56 H24         6.7279   18.8763   16.4412 H       1  <0>1        0.0806
     57 H25         5.7571   19.4443   19.3623 H       1  <0>1        0.1290
     58 H26         4.4628   18.4674   20.0963 H       1  <0>1        0.1328
     59 H27         6.1678   16.7967   20.8239 H       1  <0>1        0.0922
     60 H28         7.4469   17.8288   20.1406 H       1  <0>1        0.0759
     61 H29         6.4759   18.4076   21.5155 H       1  <0>1        0.1040
     62 N5          5.4024   17.6040   18.4016 N.4     1  <0>1       -0.4262
     63 H30         6.3601   17.3337   18.1487 H       1  <0>1        0.4270
@<TRIPOS>BOND
     1     1     2    1
     2     1    33    1
     3     1    34    1
     4     1    35    1
     5     2     3    1
     6     2    36    1
     7     2    37    1
     8     3     8   ar
     9     3     4   ar
    10     4    19   ar
    11     4     5   ar
    12     5     6   ar
    13     5    16   ar
    14     6     7   ar
    15     6    38    1
    16     7     8   ar
    17     7    10    1
    18     8     9    2
    19    10    15   ar
    20    10    11   ar
    21    11    12   ar
    22    11    39    1
    23    12    13   ar
    24    12    40    1
    25    13    14   ar
    26    13    41    1
    27    14    15   ar
    28    14    42    1
    29    15    43    1
    30    16    17   ar
    31    16    44    1
    32    17    18   ar
    33    18    19   ar
    34    18    20    1
    35    20    21    1
    36    20    45    1
    37    21    26   ar
    38    21    22   ar
    39    22    23   ar
    40    22    46    1
    41    23    24   ar
    42    23    47    1
    43    24    25   ar
    44    24    27    1
    45    25    26   ar
    46    25    48    1
    47    26    49    1
    48    27    28    1
    49    28    50    1
    50    28    51    1
    51    28    62    1
    52    29    30    1
    53    29    52    1
    54    29    53    1
    55    29    62    1
    56    30    54    1
    57    30    55    1
    58    30    56    1
    59    31    32    1
    60    31    57    1
    61    31    58    1
    62    31    62    1
    63    32    59    1
    64    32    60    1
    65    32    61    1
    66    62    63    1
@<TRIPOS>MOLECULE
ZINC03815514
 71 75 0 0 0
SMALL
USER_CHARGES

@<TRIPOS>ATOM
      1 C1         10.5119   12.5223   15.3166 C.3     1  <0>1        0.0613
      2 N1          9.5689   11.7087   16.0880 N.ar    1  <0>1       -0.5203
      3 C2          9.7975   10.3606   16.2414 C.ar    1  <0>1        0.2702
      4 C3         10.9122    9.7530   15.6758 C.ar    1  <0>1       -0.2796
      5 C4         11.0983    8.3900   15.8596 C.ar    1  <0>1        0.4294
      6 N2         10.2348    7.6640   16.5623 N.ar    1  <0>1       -0.5489
      7 C5          9.1654    8.1906   17.1174 C.ar    1  <0>1        0.2263
      8 C6          8.9005    9.5590   16.9813 C.ar    1  <0>1       -0.2210
      9 C7          7.7549   10.1425   17.5723 C.ar    1  <0>1        0.0158
     10 C8          7.5347   11.4839   17.4151 C.ar    1  <0>1       -0.1509
     11 C9          8.4878   12.2876   16.6462 C.ar    1  <0>1        0.5491
     12 O1          8.2998   13.4831   16.5070 O.2     1  <0>1       -0.5019
     13 C10         6.3430   12.1202   18.0233 C.ar    1  <0>1       -0.0161
     14 C11         5.1500   12.2050   17.3043 C.ar    1  <0>1       -0.0065
     15 C12         4.0413   12.7945   17.8793 C.ar    1  <0>1       -0.1055
     16 C13         4.1146   13.3099   19.1608 C.ar    1  <0>1       -0.0851
     17 C14         5.2956   13.2342   19.8769 C.ar    1  <0>1       -0.1056
     18 C15         6.4102   12.6424   19.3157 C.ar    1  <0>1       -0.0066
     19 Cl1         7.8919   12.5489   20.2156 Cl      1  <0>1       -0.0519
     20 Cl2         5.0581   11.5653   15.6931 Cl      1  <0>1       -0.0511
     21 N3         12.2080    7.7732   15.2992 N.pl3   1  <0>1       -0.6594
     22 C16        12.3468    6.3822   15.3719 C.ar    1  <0>1        0.1467
     23 C17        13.5972    5.8193   15.5915 C.ar    1  <0>1       -0.1112
     24 C18        13.7326    4.4472   15.6673 C.ar    1  <0>1       -0.1840
     25 C19        12.6216    3.6307   15.5148 C.ar    1  <0>1        0.0945
     26 C20        11.3730    4.1919   15.2902 C.ar    1  <0>1       -0.1206
     27 C21        11.2351    5.5641   15.2188 C.ar    1  <0>1       -0.0678
     28 O2         12.7565    2.2794   15.5849 O.3     1  <0>1       -0.3146
     29 C22        14.0710    1.7699   15.8185 C.3     1  <0>1        0.0619
     30 C23        14.0247    0.2413   15.8652 C.3     1  <0>1       -0.1533
     31 C24        15.4321   -0.3041   16.1152 C.3     1  <0>1       -0.0029
     32 C25        14.6227   -2.2402   17.3241 C.3     1  <0>1       -0.0338
     33 C26        14.5326   -3.7676   17.2911 C.3     1  <0>1       -0.0260
     34 C27        16.6529   -3.8674   16.1277 C.3     1  <0>1       -0.0266
     35 C28        16.7429   -2.3399   16.1609 C.3     1  <0>1       -0.0261
     36 C29        15.8434   -5.8034   17.3367 C.3     1  <0>1       -0.0462
     37 H1         10.2085   12.5356   14.2697 H       1  <0>1        0.0782
     38 H2         10.5169   13.5402   15.7064 H       1  <0>1        0.0980
     39 H3         11.5118   12.0963   15.3997 H       1  <0>1        0.0859
     40 H4         11.6214   10.3317   15.1026 H       1  <0>1        0.1464
     41 H5          8.4886    7.5652   17.6806 H       1  <0>1        0.1757
     42 H6          7.0633    9.5373   18.1395 H       1  <0>1        0.1475
     43 H7          3.1161   12.8569   17.3255 H       1  <0>1        0.1450
     44 H8          3.2458   13.7737   19.6042 H       1  <0>1        0.1471
     45 H9          5.3463   13.6385   20.8771 H       1  <0>1        0.1448
     46 H10        12.8873    8.3060   14.8572 H       1  <0>1        0.4222
     47 H11        14.4629    6.4547   15.7066 H       1  <0>1        0.1305
     48 H12        14.7042    4.0094   15.8422 H       1  <0>1        0.1248
     49 H13        10.5086    3.5556   15.1707 H       1  <0>1        0.1348
     50 H14        10.2629    6.0008   15.0443 H       1  <0>1        0.1425
     51 H15        14.7327    2.0889   15.0131 H       1  <0>1        0.0733
     52 H16        14.4449    2.1513   16.7686 H       1  <0>1        0.0723
     53 H17        13.3630   -0.0777   16.6704 H       1  <0>1        0.0990
     54 H18        13.6508   -0.1400   14.9150 H       1  <0>1        0.1031
     55 H19        16.0938    0.0149   15.3100 H       1  <0>1        0.1469
     56 H20        15.8061    0.0772   17.0654 H       1  <0>1        0.1449
     57 H21        15.1239   -1.9251   18.2394 H       1  <0>1        0.1581
     58 H22        13.6191   -1.8160   17.2944 H       1  <0>1        0.1763
     59 H23        14.0073   -4.0814   16.3890 H       1  <0>1        0.1565
     60 H24        13.9905   -4.1191   18.1689 H       1  <0>1        0.1760
     61 H25        16.1516   -4.1823   15.2125 H       1  <0>1        0.1562
     62 H26        17.6565   -4.2916   16.1571 H       1  <0>1        0.1760
     63 H27        17.2851   -1.9885   15.2830 H       1  <0>1        0.1758
     64 H28        17.2683   -2.0261   17.0629 H       1  <0>1        0.1571
     65 H29        16.8582   -6.1957   17.4044 H       1  <0>1        0.1362
     66 H30        15.2714   -6.1231   18.2077 H       1  <0>1        0.1364
     67 H31        15.3679   -6.1804   16.4313 H       1  <0>1        0.1330
     68 N4         15.3746   -1.7813   16.1373 N.4     1  <0>1       -0.4051
     69 H32        14.8947   -2.1092   15.2909 H       1  <0>1        0.4393
     70 N5         15.9010   -4.3262   17.3145 N.4     1  <0>1       -0.4067
     71 H33        16.3810   -3.9983   18.1610 H       1  <0>1        0.4405
@<TRIPOS>BOND
     1     1     2    1
     2     1    37    1
     3     1    38    1
     4     1    39    1
     5     2    11   ar
     6     2     3   ar
     7     3     8   ar
     8     3     4   ar
     9     4     5   ar
    10     4    40    1
    11     5     6   ar
    12     5    21    1
    13     6     7   ar
    14     7     8   ar
    15     7    41    1
    16     8     9   ar
    17     9    10   ar
    18     9    42    1
    19    10    11   ar
    20    10    13    1
    21    11    12    2
    22    13    18   ar
    23    13    14   ar
    24    14    15   ar
    25    14    20    1
    26    15    16   ar
    27    15    43    1
    28    16    17   ar
    29    16    44    1
    30    17    18   ar
    31    17    45    1
    32    18    19    1
    33    21    22    1
    34    21    46    1
    35    22    27   ar
    36    22    23   ar
    37    23    24   ar
    38    23    47    1
    39    24    25   ar
    40    24    48    1
    41    25    26   ar
    42    25    28    1
    43    26    27   ar
    44    26    49    1
    45    27    50    1
    46    28    29    1
    47    29    30    1
    48    29    51    1
    49    29    52    1
    50    30    31    1
    51    30    53    1
    52    30    54    1
    53    31    55    1
    54    31    56    1
    55    31    68    1
    56    32    33    1
    57    32    57    1
    58    32    58    1
    59    32    68    1
    60    33    59    1
    61    33    60    1
    62    33    70    1
    63    34    35    1
    64    34    61    1
    65    34    62    1
    66    34    70    1
    67    35    63    1
    68    35    64    1
    69    35    68    1
    70    36    65    1
    71    36    66    1
    72    36    67    1
    73    36    70    1
    74    68    69    1
    75    70    71    1
@<TRIPOS>MOLECULE
ZINC03815517
 64 67 0 0 0
SMALL
USER_CHARGES

@<TRIPOS>ATOM
      1 C1          3.8191   19.7949   19.9541 C.3     1  <0>1       -0.1868
      2 C2          5.2913   19.5418   19.6230 C.3     1  <0>1       -0.0155
      3 C3          5.9264   19.9734   21.9193 C.3     1  <0>1       -0.0118
      4 C4          6.8453   21.1569   21.6099 C.3     1  <0>1       -0.1882
      5 C5          5.4097   17.7167   21.2097 C.3     1  <0>1       -0.0020
      6 C6          5.7012   16.6764   20.1265 C.3     1  <0>1        0.0263
      7 O1          7.1113   16.4617   20.0392 O.3     1  <0>1       -0.3289
      8 C7          7.5425   15.5594   19.1177 C.ar    1  <0>1        0.0934
      9 C8          8.8989   15.3032   18.9804 C.ar    1  <0>1       -0.1196
     10 C9          9.3378   14.3874   18.0447 C.ar    1  <0>1       -0.0696
     11 C10         8.4207   13.7226   17.2412 C.ar    1  <0>1        0.1467
     12 C11         7.0633   13.9836   17.3757 C.ar    1  <0>1       -0.1097
     13 C12         6.6259   14.8961   18.3152 C.ar    1  <0>1       -0.1804
     14 N1          8.8647   12.7940   16.2923 N.pl3   1  <0>1       -0.6585
     15 C13         9.9242   11.9494   16.5911 C.ar    1  <0>1        0.4310
     16 C14        10.4326   11.1189   15.6016 C.ar    1  <0>1       -0.2806
     17 C15        11.4937   10.2771   15.9117 C.ar    1  <0>1        0.2701
     18 C16        12.0092   10.3048   17.2264 C.ar    1  <0>1       -0.2225
     19 C17        13.0897    9.4620   17.5790 C.ar    1  <0>1        0.0183
     20 C18        13.6201    8.6284   16.6324 C.ar    1  <0>1       -0.1544
     21 C19        13.0573    8.6190   15.2802 C.ar    1  <0>1        0.5499
     22 O2         13.5213    7.8746   14.4349 O.2     1  <0>1       -0.5042
     23 N2         12.0321    9.4353   14.9658 N.ar    1  <0>1       -0.5204
     24 C20        11.4828    9.4219   13.6078 C.3     1  <0>1        0.0617
     25 C21        14.7515    7.7353   16.9752 C.ar    1  <0>1       -0.0144
     26 C22        16.0657    8.1738   16.8085 C.ar    1  <0>1       -0.0066
     27 C23        17.1158    7.3385   17.1358 C.ar    1  <0>1       -0.1060
     28 C24        16.8670    6.0654   17.6165 C.ar    1  <0>1       -0.0860
     29 C25        15.5667    5.6225   17.7782 C.ar    1  <0>1       -0.1058
     30 C26        14.5074    6.4500   17.4606 C.ar    1  <0>1       -0.0068
     31 Cl1        12.8761    5.8921   17.6642 Cl      1  <0>1       -0.0509
     32 Cl2        16.3802    9.7682   16.1981 Cl      1  <0>1       -0.0513
     33 C27        11.4358   11.1734   18.1630 C.ar    1  <0>1        0.2277
     34 N3         10.4322   11.9507   17.8189 N.ar    1  <0>1       -0.5479
     35 H1          3.2864   20.0796   19.0467 H       1  <0>1        0.1064
     36 H2          3.3777   18.8867   20.3647 H       1  <0>1        0.0789
     37 H3          3.7444   20.5985   20.6866 H       1  <0>1        0.0826
     38 H4          5.7614   20.4773   19.3197 H       1  <0>1        0.1313
     39 H5          5.3618   18.8193   18.8099 H       1  <0>1        0.1262
     40 H6          4.9043   20.3302   22.0455 H       1  <0>1        0.1329
     41 H7          6.2573   19.4867   22.8368 H       1  <0>1        0.1294
     42 H8          6.8898   21.8183   22.4753 H       1  <0>1        0.1064
     43 H9          7.8459   20.7900   21.3812 H       1  <0>1        0.0803
     44 H10         6.4548   21.7058   20.7530 H       1  <0>1        0.0795
     45 H11         4.3319   17.8155   21.3381 H       1  <0>1        0.1505
     46 H12         5.8599   17.3983   22.1499 H       1  <0>1        0.1411
     47 H13         5.3284   17.0361   19.1675 H       1  <0>1        0.0847
     48 H14         5.2061   15.7391   20.3804 H       1  <0>1        0.1075
     49 H15         9.6120   15.8203   19.6054 H       1  <0>1        0.1351
     50 H16        10.3939   14.1880   17.9379 H       1  <0>1        0.1426
     51 H17         6.3498   13.4702   16.7481 H       1  <0>1        0.1317
     52 H18         5.5701   15.0965   18.4225 H       1  <0>1        0.1289
     53 H19         8.4316   12.7411   15.4259 H       1  <0>1        0.4223
     54 H20        10.0107   11.1273   14.6074 H       1  <0>1        0.1463
     55 H21        13.4906    9.4767   18.5817 H       1  <0>1        0.1475
     56 H22        12.0103   10.1530   12.9952 H       1  <0>1        0.0776
     57 H23        11.6064    8.4289   13.1757 H       1  <0>1        0.0974
     58 H24        10.4229    9.6737   13.6421 H       1  <0>1        0.0861
     59 H25        18.1334    7.6783   17.0119 H       1  <0>1        0.1444
     60 H26        17.6917    5.4145   17.8664 H       1  <0>1        0.1465
     61 H27        15.3792    4.6274   18.1540 H       1  <0>1        0.1445
     62 H28        11.8190   11.2050   19.1723 H       1  <0>1        0.1762
     63 N4          6.0036   19.0077   20.8029 N.4     1  <0>1       -0.3968
     64 H29         6.9895   18.8589   20.5583 H       1  <0>1        0.4357
@<TRIPOS>BOND
     1     1     2    1
     2     1    35    1
     3     1    36    1
     4     1    37    1
     5     2    38    1
     6     2    39    1
     7     2    63    1
     8     3     4    1
     9     3    40    1
    10     3    41    1
    11     3    63    1
    12     4    42    1
    13     4    43    1
    14     4    44    1
    15     5     6    1
    16     5    45    1
    17     5    46    1
    18     5    63    1
    19     6     7    1
    20     6    47    1
    21     6    48    1
    22     7     8    1
    23     8    13   ar
    24     8     9   ar
    25     9    10   ar
    26     9    49    1
    27    10    11   ar
    28    10    50    1
    29    11    12   ar
    30    11    14    1
    31    12    13   ar
    32    12    51    1
    33    13    52    1
    34    14    15    1
    35    14    53    1
    36    15    34   ar
    37    15    16   ar
    38    16    17   ar
    39    16    54    1
    40    17    23   ar
    41    17    18   ar
    42    18    19   ar
    43    18    33   ar
    44    19    20   ar
    45    19    55    1
    46    20    21   ar
    47    20    25    1
    48    21    22    2
    49    21    23   ar
    50    23    24    1
    51    24    56    1
    52    24    57    1
    53    24    58    1
    54    25    30   ar
    55    25    26   ar
    56    26    27   ar
    57    26    32    1
    58    27    28   ar
    59    27    59    1
    60    28    29   ar
    61    28    60    1
    62    29    30   ar
    63    29    61    1
    64    30    31    1
    65    33    34   ar
    66    33    62    1
    67    63    64    1
@<TRIPOS>MOLECULE
ZINC03815520
 42 45 0 0 0
SMALL
USER_CHARGES

@<TRIPOS>ATOM
      1 C1         12.3399    9.7226   14.0440 C.3     1  <0>1        0.0699
      2 N1         11.7642    9.0215   15.1943 N.ar    1  <0>1       -0.5058
      3 C2         10.8159    9.6457   15.9649 C.ar    1  <0>1        0.4669
      4 C3         10.2511    8.9842   17.0768 C.ar    1  <0>1       -0.2764
      5 C4         10.6586    7.6713   17.4059 C.ar    1  <0>1        0.0306
      6 C5         11.6048    7.0561   16.6306 C.ar    1  <0>1       -0.1636
      7 C6         12.1708    7.7707   15.4845 C.ar    1  <0>1        0.5568
      8 O1         13.0134    7.2309   14.7898 O.2     1  <0>1       -0.5011
      9 C7         12.0527    5.6803   16.9490 C.ar    1  <0>1       -0.0104
     10 C8         13.1374    5.4765   17.8029 C.ar    1  <0>1       -0.0063
     11 C9         13.5474    4.1911   18.0987 C.ar    1  <0>1       -0.1064
     12 C10        12.8911    3.1075   17.5434 C.ar    1  <0>1       -0.0873
     13 C11        11.8182    3.3027   16.6924 C.ar    1  <0>1       -0.1063
     14 C12        11.3952    4.5828   16.3918 C.ar    1  <0>1       -0.0066
     15 Cl1        10.0493    4.8257   15.3227 Cl      1  <0>1       -0.0501
     16 Cl2        13.9661    6.8352   18.4962 Cl      1  <0>1       -0.0503
     17 C13         9.2842    9.6576   17.8383 C.ar    1  <0>1        0.2649
     18 N2          8.9417   10.8822   17.4845 N.ar    1  <0>1       -0.5685
     19 C14         9.4947   11.4739   16.4312 C.ar    1  <0>1        0.6086
     20 N3         10.4072   10.8769   15.6796 N.ar    1  <0>1       -0.5960
     21 N4          9.0993   12.7566   16.1049 N.pl3   1  <0>1       -0.6257
     22 C15         8.2200   13.4528   16.9431 C.ar    1  <0>1        0.1472
     23 C16         8.2731   13.2621   18.3175 C.ar    1  <0>1       -0.0922
     24 C17         7.4058   13.9495   19.1435 C.ar    1  <0>1       -0.1249
     25 C18         6.4820   14.8304   18.6007 C.ar    1  <0>1        0.0924
     26 C19         6.4282   15.0213   17.2277 C.ar    1  <0>1       -0.1243
     27 C20         7.2946   14.3345   16.4003 C.ar    1  <0>1       -0.1258
     28 O2          5.6289   15.5076   19.4148 O.3     1  <0>1       -0.4987
     29 H1         13.2230   10.2773   14.3613 H       1  <0>1        0.0746
     30 H2         12.6213    8.9977   13.2802 H       1  <0>1        0.0923
     31 H3         11.6039   10.4145   13.6345 H       1  <0>1        0.0950
     32 H4         10.2294    7.1607   18.2552 H       1  <0>1        0.1508
     33 H5         14.3846    4.0319   18.7620 H       1  <0>1        0.1438
     34 H6         13.2181    2.1046   17.7749 H       1  <0>1        0.1454
     35 H7         11.3103    2.4525   16.2618 H       1  <0>1        0.1438
     36 H8          8.8294    9.1840   18.6958 H       1  <0>1        0.1886
     37 H9          9.4309   13.1750   15.2949 H       1  <0>1        0.4270
     38 H10         8.9956   12.5800   18.7408 H       1  <0>1        0.1394
     39 H11         7.4470   13.8015   20.2126 H       1  <0>1        0.1332
     40 H12         5.7084   15.7071   16.8058 H       1  <0>1        0.1339
     41 H13         7.2523   14.4829   15.3314 H       1  <0>1        0.1309
     42 H14         5.9687   16.3605   19.7184 H       1  <0>1        0.3906
@<TRIPOS>BOND
     1     1     2    1
     2     1    29    1
     3     1    30    1
     4     1    31    1
     5     2     7   ar
     6     2     3   ar
     7     3    20   ar
     8     3     4   ar
     9     4     5   ar
    10     4    17   ar
    11     5     6   ar
    12     5    32    1
    13     6     7   ar
    14     6     9    1
    15     7     8    2
    16     9    14   ar
    17     9    10   ar
    18    10    11   ar
    19    10    16    1
    20    11    12   ar
    21    11    33    1
    22    12    13   ar
    23    12    34    1
    24    13    14   ar
    25    13    35    1
    26    14    15    1
    27    17    18   ar
    28    17    36    1
    29    18    19   ar
    30    19    20   ar
    31    19    21    1
    32    21    22    1
    33    21    37    1
    34    22    27   ar
    35    22    23   ar
    36    23    24   ar
    37    23    38    1
    38    24    25   ar
    39    24    39    1
    40    25    26   ar
    41    25    28    1
    42    26    27   ar
    43    26    40    1
    44    27    41    1
    45    28    42    1
@<TRIPOS>MOLECULE
ZINC03815526
 45 47 0 0 0
SMALL
USER_CHARGES

@<TRIPOS>ATOM
      1 C1          4.6992    4.7927   16.2383 C.3     1  <0>1       -0.1661
      2 C2          4.1797    5.1640   14.8479 C.3     1  <0>1        0.1882
      3 C3          2.6736    4.9032   14.7799 C.3     1  <0>1       -0.1553
      4 C4          4.8924    4.3147   13.7935 C.3     1  <0>1       -0.1661
      5 N1          4.4417    6.5824   14.5913 N.am    1  <0>1       -0.7354
      6 C5          5.7070    7.0462   14.6006 C.2     1  <0>1        0.6923
      7 O1          6.6310    6.2877   14.8218 O.2     1  <0>1       -0.5024
      8 N2          5.9482    8.3511   14.3644 N.am    1  <0>1       -0.6600
      9 C6          7.2507    8.8286   14.3740 C.ar    1  <0>1        0.4861
     10 C7          7.4855   10.1977   14.1248 C.ar    1  <0>1       -0.1745
     11 C8          8.7850   10.6787   14.1329 C.ar    1  <0>1        0.0528
     12 C9          9.8225    9.7681   14.3923 C.ar    1  <0>1       -0.2946
     13 C10        11.1701   10.1660   14.4208 C.ar    1  <0>1        0.2667
     14 N3         12.0891    9.2555   14.6715 N.ar    1  <0>1       -0.5713
     15 C11        11.7632    7.9842   14.8945 C.ar    1  <0>1        0.5964
     16 N4         10.5157    7.5549   14.8796 N.ar    1  <0>1       -0.5644
     17 C12         9.5104    8.4045   14.6341 C.ar    1  <0>1        0.4327
     18 N5          8.2410    7.9939   14.6150 N.ar    1  <0>1       -0.4737
     19 N6         12.7732    7.0766   15.1519 N.pl3   1  <0>1       -0.8107
     20 C13         6.3511   11.1137   13.8561 C.ar    1  <0>1       -0.0172
     21 C14         5.9081   11.3154   12.5487 C.ar    1  <0>1       -0.0203
     22 C15         4.8510   12.1700   12.3050 C.ar    1  <0>1       -0.0942
     23 C16         4.2317   12.8255   13.3543 C.ar    1  <0>1       -0.0915
     24 C17         4.6663   12.6297   14.6525 C.ar    1  <0>1       -0.0853
     25 C18         5.7189   11.7730   14.9097 C.ar    1  <0>1       -0.0708
     26 Br1         6.3064   11.5009   16.6865 Br      1  <0>1       -0.0224
     27 Cl1         6.6843   10.4942   11.2308 Cl      1  <0>1       -0.0432
     28 H1          4.1915    5.3978   16.9895 H       1  <0>1        0.0527
     29 H2          4.5043    3.7374   16.4292 H       1  <0>1        0.0638
     30 H3          5.7722    4.9785   16.2867 H       1  <0>1        0.0817
     31 H4          2.3033    5.1676   13.7895 H       1  <0>1        0.0621
     32 H5          2.4786    3.8479   14.9709 H       1  <0>1        0.0765
     33 H6          2.1657    5.5082   15.5311 H       1  <0>1        0.0622
     34 H7          5.9653    4.5005   13.8420 H       1  <0>1        0.0816
     35 H8          4.6974    3.2594   13.9845 H       1  <0>1        0.0639
     36 H9          4.5221    4.5792   12.8031 H       1  <0>1        0.0526
     37 H10         3.7046    7.1876   14.4147 H       1  <0>1        0.3935
     38 H11         5.2110    8.9563   14.1879 H       1  <0>1        0.4109
     39 H12         8.9938   11.7216   13.9451 H       1  <0>1        0.1509
     40 H13        11.4462   11.1946   14.2411 H       1  <0>1        0.1806
     41 H14        12.5579    6.1453   15.3167 H       1  <0>1        0.4185
     42 H15        13.6973    7.3710   15.1676 H       1  <0>1        0.4169
     43 H16         4.5072   12.3273   11.2933 H       1  <0>1        0.1454
     44 H17         3.4052   13.4925   13.1587 H       1  <0>1        0.1461
     45 H18         4.1788   13.1441   15.4673 H       1  <0>1        0.1444
@<TRIPOS>BOND
     1     1     2    1
     2     1    28    1
     3     1    29    1
     4     1    30    1
     5     2     3    1
     6     2     4    1
     7     2     5    1
     8     3    31    1
     9     3    32    1
    10     3    33    1
    11     4    34    1
    12     4    35    1
    13     4    36    1
    14     5     6   am
    15     5    37    1
    16     6     7    2
    17     6     8   am
    18     8     9    1
    19     8    38    1
    20     9    18   ar
    21     9    10   ar
    22    10    11   ar
    23    10    20    1
    24    11    12   ar
    25    11    39    1
    26    12    17   ar
    27    12    13   ar
    28    13    14   ar
    29    13    40    1
    30    14    15   ar
    31    15    16   ar
    32    15    19    1
    33    16    17   ar
    34    17    18   ar
    35    19    41    1
    36    19    42    1
    37    20    25   ar
    38    20    21   ar
    39    21    22   ar
    40    21    27    1
    41    22    23   ar
    42    22    43    1
    43    23    24   ar
    44    23    44    1
    45    24    25   ar
    46    24    45    1
    47    25    26    1
@<TRIPOS>MOLECULE
ZINC03815527
 50 53 0 0 0
SMALL
USER_CHARGES

@<TRIPOS>ATOM
      1 C1         10.0276   13.1222   15.0597 C.ar    1  <0>1       -0.0336
      2 C2         11.1335   12.9017   15.8556 C.ar    1  <0>1       -0.0380
      3 C3         11.7108   11.6382   15.9132 C.ar    1  <0>1        0.0417
      4 C4         11.1574   10.6009   15.1495 C.ar    1  <0>1        0.0102
      5 C5         10.0464   10.8350   14.3463 C.ar    1  <0>1       -0.0257
      6 C6          9.4872   12.0965   14.3025 C.ar    1  <0>1        0.1057
      7 S1          8.0793   12.3998   13.2875 S.O2    1  <0>1        0.0560
      8 O1          8.0771   13.7917   13.0013 O.2     1  <0>1       -0.1533
      9 O2          8.0946   11.4121   12.2659 O.2     1  <0>1       -0.1533
     10 N1          6.7369   12.1045   14.2111 N.3     1  <0>1       -0.2035
     11 C7         11.9794    9.4005   15.4195 C.2     1  <0>1        0.0479
     12 C8         11.8165    8.1341   14.8912 C.2     1  <0>1       -0.0253
     13 C9         12.7857    7.1389   15.1337 C.ar    1  <0>1        0.0437
     14 C10        12.5476    5.7793   15.2808 C.ar    1  <0>1       -0.0187
     15 C11        13.7789    5.1738   15.5044 C.ar    1  <0>1       -0.0231
     16 C12        14.7357    6.1427   15.4932 C.ar    1  <0>1        0.0199
     17 N2         14.1453    7.3376   15.2621 N.ar    1  <0>1       -0.3579
     18 H1         14.6010    8.1916   15.1995 H       1  <0>1        0.1656
     19 C13        16.2070    5.8739   15.7046 C.3     1  <0>1       -0.0122
     20 C14        16.3600    4.4819   16.3286 C.3     1  <0>1       -0.0474
     21 C15        15.5578    3.4642   15.5132 C.3     1  <0>1       -0.0487
     22 C16        14.0586    3.7079   15.7248 C.3     1  <0>1       -0.0257
     23 C17        11.2089    5.0906   15.2119 C.3     1  <0>1       -0.0154
     24 C18        10.9235    4.6738   13.7677 C.3     1  <0>1        0.0488
     25 C19         9.5848    3.9852   13.6988 C.2     1  <0>1        0.3050
     26 O3          8.9266    3.8424   14.7020 O.2     1  <0>1       -0.2510
     27 C20        13.0061    9.8464   16.3701 C.2     1  <0>1        0.2490
     28 O4         13.8876    9.1546   16.8483 O.2     1  <0>1       -0.2698
     29 N3         12.8026   11.1508   16.6208 N.am    1  <0>1       -0.2809
     30 H2          9.5821   14.1054   15.0237 H       1  <0>1        0.0638
     31 H3         11.5485   13.7109   16.4382 H       1  <0>1        0.0637
     32 H4          9.6231   10.0335   13.7592 H       1  <0>1        0.0644
     33 H5          6.8357   11.8202   15.1333 H       1  <0>1        0.1442
     34 H6          5.8518   12.2157   13.8301 H       1  <0>1        0.1442
     35 H7         10.9469    7.9065   14.2925 H       1  <0>1        0.0646
     36 H8         16.6245    6.6248   16.3753 H       1  <0>1        0.0328
     37 H9         16.7272    5.9063   14.7473 H       1  <0>1        0.0328
     38 H10        15.9883    4.5003   17.3531 H       1  <0>1        0.0269
     39 H11        17.4123    4.1980   16.3294 H       1  <0>1        0.0269
     40 H12        15.8117    2.4558   15.8397 H       1  <0>1        0.0269
     41 H13        15.7983    3.5752   14.4558 H       1  <0>1        0.0269
     42 H14        13.7814    3.4301   16.7418 H       1  <0>1        0.0314
     43 H15        13.4860    3.1138   15.0126 H       1  <0>1        0.0314
     44 H16        11.2218    4.2066   15.8495 H       1  <0>1        0.0319
     45 H17        10.4310    5.7735   15.5535 H       1  <0>1        0.0319
     46 H18        10.9105    5.5579   13.1303 H       1  <0>1        0.0381
     47 H19        11.7014    3.9910   13.4262 H       1  <0>1        0.0381
     48 H20        13.3484   11.6841   17.2197 H       1  <0>1        0.1552
     49 O5          9.1237    3.5304   12.5231 O.3     1  <0>1       -0.4806
     50 H           9.6341    3.6412   11.7452 H       1  <0>1        0.2951
@<TRIPOS>BOND
     1     1     6   ar
     2     1     2   ar
     3     1    30    1
     4     2     3   ar
     5     2    31    1
     6     3    29    1
     7     3     4   ar
     8     4     5   ar
     9     4    11    1
    10     5     6   ar
    11     5    32    1
    12     6     7    1
    13     7     8    2
    14     7     9    2
    15     7    10    1
    16    10    33    1
    17    10    34    1
    18    11    12    2
    19    11    27    1
    20    12    13    1
    21    12    35    1
    22    13    17   ar
    23    13    14   ar
    24    14    15   ar
    25    14    23    1
    26    15    22    1
    27    15    16   ar
    28    16    17   ar
    29    16    19    1
    30    17    18    1
    31    19    20    1
    32    19    36    1
    33    19    37    1
    34    20    21    1
    35    20    38    1
    36    20    39    1
    37    21    22    1
    38    21    40    1
    39    21    41    1
    40    22    42    1
    41    22    43    1
    42    23    24    1
    43    23    44    1
    44    23    45    1
    45    24    25    1
    46    24    46    1
    47    24    47    1
    48    25    26    2
    49    25    49    1
    50    27    28    2
    51    27    29   am
    52    29    48    1
    53    49    50    1
@<TRIPOS>MOLECULE
ZINC03815529
 68 72 0 0 0
SMALL
USER_CHARGES

@<TRIPOS>ATOM
      1 C1         12.2914    9.6347   13.9452 C.3     1  <0>1        0.0607
      2 N1         11.7976    8.9991   15.1692 N.ar    1  <0>1       -0.5201
      3 C2         10.8897    9.6609   15.9635 C.ar    1  <0>1        0.2696
      4 C3         10.4294   10.9277   15.6243 C.ar    1  <0>1       -0.2749
      5 C4          9.5134   11.5536   16.4582 C.ar    1  <0>1        0.4234
      6 N2          9.0737   10.9649   17.5656 N.ar    1  <0>1       -0.5500
      7 C5          9.4777    9.7680   17.9308 C.ar    1  <0>1        0.2246
      8 C6         10.4018    9.0654   17.1473 C.ar    1  <0>1       -0.2153
      9 C7         10.8471    7.7765   17.5247 C.ar    1  <0>1        0.0115
     10 C8         11.7501    7.1248   16.7296 C.ar    1  <0>1       -0.1446
     11 C9         12.2320    7.7686   15.5054 C.ar    1  <0>1        0.5480
     12 O1         13.0322    7.1915   14.7908 O.2     1  <0>1       -0.4984
     13 C10        12.2330    5.7744   17.1015 C.ar    1  <0>1       -0.0191
     14 C11        13.3713    5.6313   17.8959 C.ar    1  <0>1       -0.0060
     15 C12        13.8131    4.3698   18.2434 C.ar    1  <0>1       -0.1053
     16 C13        13.1358    3.2492   17.7971 C.ar    1  <0>1       -0.0839
     17 C14        12.0100    3.3839   17.0046 C.ar    1  <0>1       -0.1048
     18 C15        11.5547    4.6399   16.6542 C.ar    1  <0>1       -0.0063
     19 Cl1        10.1420    4.8067   15.6591 Cl      1  <0>1       -0.0508
     20 Cl2        14.2267    7.0362   18.4511 Cl      1  <0>1       -0.0525
     21 N3          9.0472   12.8184   16.1290 N.pl3   1  <0>1       -0.6594
     22 C16         8.2292   13.5178   17.0242 C.ar    1  <0>1        0.1619
     23 C17         7.2138   14.3348   16.5445 C.ar    1  <0>1       -0.1153
     24 C18         6.4045   15.0209   17.4284 C.ar    1  <0>1       -0.1751
     25 C19         6.6118   14.9018   18.7948 C.ar    1  <0>1        0.0769
     26 C20         7.6291   14.0901   19.2747 C.ar    1  <0>1       -0.1148
     27 C21         8.4363   13.3995   18.3923 C.ar    1  <0>1       -0.0743
     28 O2          5.8174   15.5815   19.6644 O.3     1  <0>1       -0.3346
     29 C22         4.7894   16.3988   19.1011 C.3     1  <0>1        0.0218
     30 C23         4.0055   17.0794   20.2250 C.3     1  <0>1        0.0041
     31 C24         4.3442   18.2951   22.2920 C.3     1  <0>1       -0.0263
     32 C25         5.3366   19.1703   23.0612 C.3     1  <0>1       -0.0272
     33 C26         6.1485   20.0854   20.9727 C.3     1  <0>1       -0.0261
     34 C27         5.1562   19.2102   20.2034 C.3     1  <0>1       -0.0320
     35 C28         6.4872   21.3011   23.0397 C.3     1  <0>1       -0.0461
     36 H1         13.1859   10.2146   14.1723 H       1  <0>1        0.0785
     37 H2         12.5327    8.8676   13.2094 H       1  <0>1        0.0990
     38 H3         11.5228   10.2948   13.5431 H       1  <0>1        0.0860
     39 H4         10.7789   11.4169   14.7271 H       1  <0>1        0.1473
     40 H5          9.0956    9.3251   18.8386 H       1  <0>1        0.1769
     41 H6         10.4797    7.3134   18.4286 H       1  <0>1        0.1487
     42 H7         14.6913    4.2578   18.8618 H       1  <0>1        0.1453
     43 H8         13.4877    2.2648   18.0683 H       1  <0>1        0.1479
     44 H9         11.4858    2.5050   16.6594 H       1  <0>1        0.1456
     45 H10         9.2882   13.2180   15.2787 H       1  <0>1        0.4236
     46 H11         7.0546   14.4305   15.4806 H       1  <0>1        0.1340
     47 H12         5.6122   15.6531   17.0556 H       1  <0>1        0.1276
     48 H13         7.7903   13.9984   20.3386 H       1  <0>1        0.1337
     49 H14         9.2281   12.7672   18.7661 H       1  <0>1        0.1480
     50 H15         5.2388   17.1576   18.4603 H       1  <0>1        0.0847
     51 H16         4.1145   15.7785   18.5112 H       1  <0>1        0.1174
     52 H17         3.1819   17.6519   19.7985 H       1  <0>1        0.1585
     53 H18         3.6096   16.3223   20.9019 H       1  <0>1        0.1537
     54 H19         3.4016   18.8298   22.1759 H       1  <0>1        0.1571
     55 H20         4.1724   17.3701   22.8424 H       1  <0>1        0.1761
     56 H21         6.2700   18.6249   23.2011 H       1  <0>1        0.1563
     57 H22         4.9164   19.4280   24.0334 H       1  <0>1        0.1762
     58 H23         7.0911   19.5505   21.0889 H       1  <0>1        0.1561
     59 H24         6.3206   21.0102   20.4220 H       1  <0>1        0.1758
     60 H25         5.5763   18.9525   19.2313 H       1  <0>1        0.1718
     61 H26         4.2227   19.7553   20.0632 H       1  <0>1        0.1586
     62 H27         6.6088   22.2302   22.4829 H       1  <0>1        0.1360
     63 H28         6.0546   21.5167   24.0166 H       1  <0>1        0.1364
     64 H29         7.4594   20.8256   23.1697 H       1  <0>1        0.1328
     65 N4          4.9211   17.9689   20.9709 N.4     1  <0>1       -0.4088
     66 H30         5.8171   17.4864   21.1078 H       1  <0>1        0.4455
     67 N5          5.5716   20.4114   22.2940 N.4     1  <0>1       -0.4060
     68 H31         4.6755   20.8939   22.1571 H       1  <0>1        0.4402
@<TRIPOS>BOND
     1     1     2    1
     2     1    36    1
     3     1    37    1
     4     1    38    1
     5     2    11   ar
     6     2     3   ar
     7     3     8   ar
     8     3     4   ar
     9     4     5   ar
    10     4    39    1
    11     5     6   ar
    12     5    21    1
    13     6     7   ar
    14     7     8   ar
    15     7    40    1
    16     8     9   ar
    17     9    10   ar
    18     9    41    1
    19    10    11   ar
    20    10    13    1
    21    11    12    2
    22    13    18   ar
    23    13    14   ar
    24    14    15   ar
    25    14    20    1
    26    15    16   ar
    27    15    42    1
    28    16    17   ar
    29    16    43    1
    30    17    18   ar
    31    17    44    1
    32    18    19    1
    33    21    22    1
    34    21    45    1
    35    22    27   ar
    36    22    23   ar
    37    23    24   ar
    38    23    46    1
    39    24    25   ar
    40    24    47    1
    41    25    26   ar
    42    25    28    1
    43    26    27   ar
    44    26    48    1
    45    27    49    1
    46    28    29    1
    47    29    30    1
    48    29    50    1
    49    29    51    1
    50    30    52    1
    51    30    53    1
    52    30    65    1
    53    31    32    1
    54    31    54    1
    55    31    55    1
    56    31    65    1
    57    32    56    1
    58    32    57    1
    59    32    67    1
    60    33    34    1
    61    33    58    1
    62    33    59    1
    63    33    67    1
    64    34    60    1
    65    34    61    1
    66    34    65    1
    67    35    62    1
    68    35    63    1
    69    35    64    1
    70    35    67    1
    71    65    66    1
    72    67    68    1
@<TRIPOS>MOLECULE
ZINC03815532
 48 51 0 0 0
SMALL
USER_CHARGES

@<TRIPOS>ATOM
      1 C1          9.3212   11.8118   14.5317 C.ar    1  <0>1       -0.0460
      2 C2          9.6999   10.9791   13.5045 C.ar    1  <0>1       -0.0391
      3 C3         10.6736   10.0041   13.7118 C.ar    1  <0>1        0.0416
      4 C4         11.2598    9.8769   14.9819 C.ar    1  <0>1        0.0091
      5 C5         10.8766   10.7113   16.0209 C.ar    1  <0>1       -0.0381
      6 C6          9.9002   11.6842   15.7995 C.ar    1  <0>1        0.0595
      7 C7          9.4838   12.5778   16.8966 C.2     1  <0>1        0.3368
      8 O1          9.9909   12.4679   17.9952 O.2     1  <0>1       -0.2451
      9 C8         12.2387    8.7710   14.8789 C.2     1  <0>1        0.0479
     10 C9         13.0595    8.2786   15.8752 C.2     1  <0>1       -0.0253
     11 C10        13.8232    7.1149   15.6487 C.ar    1  <0>1        0.0437
     12 C11        15.0824    6.8453   16.1670 C.ar    1  <0>1       -0.0187
     13 C12        15.4582    5.5949   15.6894 C.ar    1  <0>1       -0.0231
     14 C13        14.4524    5.1220   14.9027 C.ar    1  <0>1        0.0199
     15 N1         13.4529    6.0331   14.8764 N.ar    1  <0>1       -0.3579
     16 H1         12.6165    5.9421   14.3935 H       1  <0>1        0.1656
     17 C14        14.4928    3.7862   14.1988 C.3     1  <0>1       -0.0122
     18 C15        15.9452    3.2959   14.1737 C.3     1  <0>1       -0.0474
     19 C16        16.5381    3.3792   15.5828 C.3     1  <0>1       -0.0487
     20 C17        16.7408    4.8502   15.9657 C.3     1  <0>1       -0.0257
     21 C18        15.8890    7.7384   17.0741 C.3     1  <0>1       -0.0154
     22 C19        15.5554    7.4189   18.5327 C.3     1  <0>1        0.0488
     23 C20        16.3620    8.3120   19.4397 C.2     1  <0>1        0.3050
     24 O2         17.1253    9.1212   18.9681 O.2     1  <0>1       -0.2510
     25 C21        12.1472    8.3112   13.4873 C.2     1  <0>1        0.2490
     26 O3         12.7939    7.4074   12.9885 O.2     1  <0>1       -0.2698
     27 N2         11.2257    9.0614   12.8604 N.am    1  <0>1       -0.2809
     28 H2          8.5691   12.5675   14.3596 H       1  <0>1        0.0626
     29 H3          9.2435   11.0844   12.5315 H       1  <0>1        0.0636
     30 H4         11.3305   10.6089   16.9955 H       1  <0>1        0.0632
     31 H5         13.1164    8.7850   16.8274 H       1  <0>1        0.0646
     32 H6         14.1253    3.8976   13.1787 H       1  <0>1        0.0328
     33 H7         13.8726    3.0690   14.7366 H       1  <0>1        0.0328
     34 H8         16.5279    3.9209   13.4970 H       1  <0>1        0.0269
     35 H9         15.9737    2.2624   13.8283 H       1  <0>1        0.0269
     36 H10        17.4977    2.8626   15.6044 H       1  <0>1        0.0269
     37 H11        15.8566    2.9097   16.2922 H       1  <0>1        0.0269
     38 H12        17.5483    5.2766   15.3706 H       1  <0>1        0.0314
     39 H13        16.9868    4.9233   17.0251 H       1  <0>1        0.0314
     40 H14        16.9515    7.5698   16.8990 H       1  <0>1        0.0319
     41 H15        15.6475    8.7808   16.8661 H       1  <0>1        0.0319
     42 H16        14.4928    7.5877   18.7078 H       1  <0>1        0.0381
     43 H17        15.7968    6.3765   18.7407 H       1  <0>1        0.0381
     44 H18        10.9782    8.9561   11.9285 H       1  <0>1        0.1552
     45 O4          8.5412   13.5160   16.6804 O.3     1  <0>1       -0.4771
     46 O5         16.2324    8.2087   20.7718 O.3     1  <0>1       -0.4806
     47 H           8.1502   13.6007   15.8331 H       1  <0>1        0.2954
     48 H          15.6404    7.5812   21.1376 H       1  <0>1        0.2951
@<TRIPOS>BOND
     1     1     6   ar
     2     1     2   ar
     3     1    28    1
     4     2     3   ar
     5     2    29    1
     6     3    27    1
     7     3     4   ar
     8     4     5   ar
     9     4     9    1
    10     5     6   ar
    11     5    30    1
    12     6     7    1
    13     7     8    2
    14     7    45    1
    15     9    10    2
    16     9    25    1
    17    10    11    1
    18    10    31    1
    19    11    15   ar
    20    11    12   ar
    21    12    13   ar
    22    12    21    1
    23    13    20    1
    24    13    14   ar
    25    14    15   ar
    26    14    17    1
    27    15    16    1
    28    17    18    1
    29    17    32    1
    30    17    33    1
    31    18    19    1
    32    18    34    1
    33    18    35    1
    34    19    20    1
    35    19    36    1
    36    19    37    1
    37    20    38    1
    38    20    39    1
    39    21    22    1
    40    21    40    1
    41    21    41    1
    42    22    23    1
    43    22    42    1
    44    22    43    1
    45    23    24    2
    46    23    46    1
    47    25    26    2
    48    25    27   am
    49    27    44    1
    50    45    47    1
    51    46    48    1
@<TRIPOS>MOLECULE
ZINC03815535
 65 68 0 0 0
SMALL
USER_CHARGES

@<TRIPOS>ATOM
      1 C1          9.3309   10.9002   16.8701 C.3     1  <0>1        0.0704
      2 N1          9.9949   11.5796   15.7549 N.ar    1  <0>1       -0.5069
      3 C2         10.9626   10.9220   15.0384 C.ar    1  <0>1        0.4680
      4 C3         11.6119   11.5622   13.9607 C.ar    1  <0>1       -0.2728
      5 C4         11.2691   12.8881   13.6100 C.ar    1  <0>1        0.0214
      6 C5         10.3023   13.5363   14.3307 C.ar    1  <0>1       -0.1508
      7 C6          9.6487   12.8435   15.4432 C.ar    1  <0>1        0.5540
      8 O1          8.7875   13.4128   16.0897 O.2     1  <0>1       -0.4927
      9 C7          9.9208   14.9265   13.9885 C.ar    1  <0>1       -0.0178
     10 C8         10.5800   16.0014   14.5863 C.ar    1  <0>1       -0.0058
     11 C9         10.2229   17.2948   14.2593 C.ar    1  <0>1       -0.1048
     12 C10         9.2074   17.5260   13.3490 C.ar    1  <0>1       -0.0836
     13 C11         8.5464   16.4649   12.7566 C.ar    1  <0>1       -0.1048
     14 C12         8.8970   15.1666   13.0713 C.ar    1  <0>1       -0.0059
     15 Cl1         8.0655   13.8364   12.3278 Cl      1  <0>1       -0.0517
     16 Cl2        11.8503   15.7133   15.7340 Cl      1  <0>1       -0.0520
     17 C13        12.5959   10.8547   13.2543 C.ar    1  <0>1        0.2657
     18 N2         12.8787    9.6211   13.6292 N.ar    1  <0>1       -0.5847
     19 C14        12.2433    9.0484   14.6456 C.ar    1  <0>1        0.6066
     20 N3         11.3080    9.6758   15.3419 N.ar    1  <0>1       -0.6019
     21 N4         12.5742    7.7536   14.9922 N.pl3   1  <0>1       -0.6967
     22 C15        13.6053    7.0347   14.2397 C.3     1  <0>1        0.1363
     23 C16        13.7772    5.6310   14.8236 C.3     1  <0>1       -0.1354
     24 C17        14.8541    4.8802   14.0378 C.3     1  <0>1       -0.1146
     25 C18        15.0260    3.4765   14.6217 C.3     1  <0>1       -0.1508
     26 C19        16.1029    2.7257   13.8358 C.3     1  <0>1       -0.0078
     27 C20        16.8127    1.4378   15.7600 C.3     1  <0>1       -0.0321
     28 C21        16.8947    0.0223   16.3363 C.3     1  <0>1       -0.0265
     29 C22        17.1977   -0.8683   14.1062 C.3     1  <0>1       -0.0269
     30 C23        17.1157    0.5472   13.5297 C.3     1  <0>1       -0.0265
     31 C24        17.9076   -2.1561   16.0304 C.3     1  <0>1       -0.0462
     32 H1          9.8843   11.0867   17.7906 H       1  <0>1        0.0745
     33 H2          8.3145   11.2801   16.9738 H       1  <0>1        0.0938
     34 H3          9.3000    9.8281   16.6757 H       1  <0>1        0.0929
     35 H4         11.7623   13.3821   12.7859 H       1  <0>1        0.1516
     36 H5         10.7347   18.1276   14.7185 H       1  <0>1        0.1455
     37 H6          8.9291   18.5394   13.0997 H       1  <0>1        0.1479
     38 H7          7.7541   16.6521   12.0469 H       1  <0>1        0.1456
     39 H8         13.1142   11.3112   12.4240 H       1  <0>1        0.1870
     40 H9         12.1240    7.3200   15.7339 H       1  <0>1        0.4154
     41 H10        14.5492    7.5753   14.3092 H       1  <0>1        0.0725
     42 H11        13.3059    6.9592   13.1943 H       1  <0>1        0.0728
     43 H12        14.0766    5.7064   15.8690 H       1  <0>1        0.0750
     44 H13        12.8333    5.0904   14.7541 H       1  <0>1        0.0761
     45 H14        14.5548    4.8046   12.9924 H       1  <0>1        0.0834
     46 H15        15.7981    5.4208   14.1073 H       1  <0>1        0.0822
     47 H16        15.3254    3.5519   15.6670 H       1  <0>1        0.0882
     48 H17        14.0821    2.9358   14.5521 H       1  <0>1        0.0924
     49 H18        15.8036    2.6501   12.7904 H       1  <0>1        0.1439
     50 H19        17.0468    3.2662   13.9053 H       1  <0>1        0.1418
     51 H20        17.8094    1.8783   15.7344 H       1  <0>1        0.1570
     52 H21        16.1610    2.0479   16.3854 H       1  <0>1        0.1746
     53 H22        15.8946   -0.4081   16.3873 H       1  <0>1        0.1556
     54 H23        17.3255    0.0614   17.3369 H       1  <0>1        0.1752
     55 H24        16.2011   -1.3088   14.1318 H       1  <0>1        0.1556
     56 H25        17.8491   -1.4785   13.4805 H       1  <0>1        0.1755
     57 H26        16.6850    0.5080   12.5292 H       1  <0>1        0.1751
     58 H27        18.1159    0.9776   13.4789 H       1  <0>1        0.1563
     59 H28        18.5929   -2.7282   15.4050 H       1  <0>1        0.1364
     60 H29        18.3121   -2.0826   17.0399 H       1  <0>1        0.1362
     61 H30        16.9402   -2.6574   16.0622 H       1  <0>1        0.1328
     62 N5         16.2431    1.3654   14.3981 N.4     1  <0>1       -0.4068
     63 H31        15.3157    0.9274   14.4470 H       1  <0>1        0.4375
     64 N6         17.7674   -0.7958   15.4682 N.4     1  <0>1       -0.4065
     65 H32        18.6948   -0.3578   15.4194 H       1  <0>1        0.4405
@<TRIPOS>BOND
     1     1     2    1
     2     1    32    1
     3     1    33    1
     4     1    34    1
     5     2     7   ar
     6     2     3   ar
     7     3    20   ar
     8     3     4   ar
     9     4     5   ar
    10     4    17   ar
    11     5     6   ar
    12     5    35    1
    13     6     7   ar
    14     6     9    1
    15     7     8    2
    16     9    14   ar
    17     9    10   ar
    18    10    11   ar
    19    10    16    1
    20    11    12   ar
    21    11    36    1
    22    12    13   ar
    23    12    37    1
    24    13    14   ar
    25    13    38    1
    26    14    15    1
    27    17    18   ar
    28    17    39    1
    29    18    19   ar
    30    19    20   ar
    31    19    21    1
    32    21    22    1
    33    21    40    1
    34    22    23    1
    35    22    41    1
    36    22    42    1
    37    23    24    1
    38    23    43    1
    39    23    44    1
    40    24    25    1
    41    24    45    1
    42    24    46    1
    43    25    26    1
    44    25    47    1
    45    25    48    1
    46    26    49    1
    47    26    50    1
    48    26    62    1
    49    27    28    1
    50    27    51    1
    51    27    52    1
    52    27    62    1
    53    28    53    1
    54    28    54    1
    55    28    64    1
    56    29    30    1
    57    29    55    1
    58    29    56    1
    59    29    64    1
    60    30    57    1
    61    30    58    1
    62    30    62    1
    63    31    59    1
    64    31    60    1
    65    31    61    1
    66    31    64    1
    67    62    63    1
    68    64    65    1
@<TRIPOS>MOLECULE
ZINC03815536
 67 70 0 0 0
SMALL
USER_CHARGES

@<TRIPOS>ATOM
      1 C1          2.1477   20.2284   22.4304 C.3     1  <0>1       -0.1901
      2 C2          2.8151   19.6950   21.1613 C.3     1  <0>1       -0.0105
      3 C3          0.7238   18.9221   20.2172 C.3     1  <0>1       -0.0123
      4 C4         -0.1856   17.6917   20.1994 C.3     1  <0>1       -0.1905
      5 C5          2.8031   17.8497   19.5936 C.3     1  <0>1       -0.0044
      6 C6          3.9380   17.0222   20.2003 C.3     1  <0>1       -0.1509
      7 C7          4.7260   16.3391   19.0808 C.3     1  <0>1        0.0637
      8 O1          5.7859   15.5661   19.6475 O.3     1  <0>1       -0.3137
      9 C8          6.5880   14.8901   18.7821 C.ar    1  <0>1        0.1030
     10 C9          7.6360   14.1204   19.2653 C.ar    1  <0>1       -0.1241
     11 C10         8.4512   13.4339   18.3872 C.ar    1  <0>1       -0.0682
     12 C11         8.2213   13.5140   17.0199 C.ar    1  <0>1        0.1366
     13 C12         7.1751   14.2890   16.5367 C.ar    1  <0>1       -0.1095
     14 C13         6.3579   14.9709   17.4165 C.ar    1  <0>1       -0.1857
     15 N1          9.0472   12.8184   16.1290 N.pl3   1  <0>1       -0.6568
     16 C14         9.5149   11.5545   16.4593 C.ar    1  <0>1        0.4335
     17 C15        10.4295   10.9275   15.6241 C.ar    1  <0>1       -0.2829
     18 C16        10.8913    9.6619   15.9644 C.ar    1  <0>1        0.2703
     19 C17        10.4063    9.0680   17.1506 C.ar    1  <0>1       -0.2253
     20 C18        10.8543    7.7805   17.5297 C.ar    1  <0>1        0.0206
     21 C19        11.7564    7.1283   16.7339 C.ar    1  <0>1       -0.1578
     22 C20        12.2337    7.7696   15.5065 C.ar    1  <0>1        0.5505
     23 O2         13.0321    7.1915   14.7909 O.2     1  <0>1       -0.5061
     24 N2         11.7977    8.9991   15.1691 N.ar    1  <0>1       -0.5204
     25 C21        12.2883    9.6329   13.9427 C.3     1  <0>1        0.0620
     26 C22        12.2413    5.7791   17.1072 C.ar    1  <0>1       -0.0129
     27 C23        13.3813    5.6387   17.8997 C.ar    1  <0>1       -0.0068
     28 C24        13.8245    4.3782   18.2494 C.ar    1  <0>1       -0.1062
     29 C25        13.1479    3.2561   17.8059 C.ar    1  <0>1       -0.0867
     30 C26        12.0207    3.3882   17.0150 C.ar    1  <0>1       -0.1062
     31 C27        11.5634    4.6431   16.6632 C.ar    1  <0>1       -0.0069
     32 Cl1        10.1487    4.8067   15.6705 Cl      1  <0>1       -0.0513
     33 Cl2        14.2363    7.0454   18.4509 Cl      1  <0>1       -0.0509
     34 C28         9.4840    9.7714   17.9348 C.ar    1  <0>1        0.2284
     35 N3          9.0782   10.9675   17.5685 N.ar    1  <0>1       -0.5469
     36 H1          2.7029   21.0915   22.7977 H       1  <0>1        0.1070
     37 H2          1.1231   20.5245   22.2051 H       1  <0>1        0.0804
     38 H3          2.1415   19.4492   23.1926 H       1  <0>1        0.0808
     39 H4          3.8397   19.3989   21.3866 H       1  <0>1        0.1296
     40 H5          2.8213   20.4742   20.3990 H       1  <0>1        0.1315
     41 H6          0.3144   19.6666   20.8999 H       1  <0>1        0.1326
     42 H7          0.7844   19.3436   19.2138 H       1  <0>1        0.1312
     43 H8          0.2611   16.9188   19.5740 H       1  <0>1        0.0788
     44 H9         -0.3052   17.3136   21.2147 H       1  <0>1        0.0816
     45 H10        -1.1606   17.9664   19.7969 H       1  <0>1        0.1070
     46 H11         3.2188   18.5903   18.9104 H       1  <0>1        0.1350
     47 H12         2.1255   17.1925   19.0487 H       1  <0>1        0.1334
     48 H13         3.5208   16.2655   20.8649 H       1  <0>1        0.0990
     49 H14         4.6024   17.6758   20.7656 H       1  <0>1        0.0976
     50 H15         5.1432   17.0956   18.4163 H       1  <0>1        0.0710
     51 H16         4.0617   15.6854   18.5156 H       1  <0>1        0.0714
     52 H17         7.8146   14.0583   20.3286 H       1  <0>1        0.1348
     53 H18         9.2671   12.8348   18.7636 H       1  <0>1        0.1413
     54 H19         6.9984   14.3553   15.4733 H       1  <0>1        0.1290
     55 H20         5.5420   15.5707   17.0411 H       1  <0>1        0.1270
     56 H21         9.2925   13.2200   15.2809 H       1  <0>1        0.4212
     57 H22        10.7767   11.4154   14.7252 H       1  <0>1        0.1458
     58 H23        10.4892    7.3187   18.4351 H       1  <0>1        0.1470
     59 H24        13.1830   10.2137   14.1667 H       1  <0>1        0.0773
     60 H25        12.5284    8.8645   13.2078 H       1  <0>1        0.0969
     61 H26        11.5185   10.2918   13.5413 H       1  <0>1        0.0860
     62 H27        14.7039    4.2682   18.8667 H       1  <0>1        0.1442
     63 H28        13.5013    2.2726   18.0782 H       1  <0>1        0.1462
     64 H29        11.4970    2.5081   16.6720 H       1  <0>1        0.1441
     65 H30         9.1040    9.3296   18.8441 H       1  <0>1        0.1757
     66 N4          2.0639   18.5133   20.6880 N.4     1  <0>1       -0.3963
     67 H31         1.9566   17.8526   21.4666 H       1  <0>1        0.4273
@<TRIPOS>BOND
     1     1     2    1
     2     1    36    1
     3     1    37    1
     4     1    38    1
     5     2    39    1
     6     2    40    1
     7     2    66    1
     8     3     4    1
     9     3    41    1
    10     3    42    1
    11     3    66    1
    12     4    43    1
    13     4    44    1
    14     4    45    1
    15     5     6    1
    16     5    46    1
    17     5    47    1
    18     5    66    1
    19     6     7    1
    20     6    48    1
    21     6    49    1
    22     7     8    1
    23     7    50    1
    24     7    51    1
    25     8     9    1
    26     9    14   ar
    27     9    10   ar
    28    10    11   ar
    29    10    52    1
    30    11    12   ar
    31    11    53    1
    32    12    13   ar
    33    12    15    1
    34    13    14   ar
    35    13    54    1
    36    14    55    1
    37    15    16    1
    38    15    56    1
    39    16    35   ar
    40    16    17   ar
    41    17    18   ar
    42    17    57    1
    43    18    24   ar
    44    18    19   ar
    45    19    20   ar
    46    19    34   ar
    47    20    21   ar
    48    20    58    1
    49    21    22   ar
    50    21    26    1
    51    22    23    2
    52    22    24   ar
    53    24    25    1
    54    25    59    1
    55    25    60    1
    56    25    61    1
    57    26    31   ar
    58    26    27   ar
    59    27    28   ar
    60    27    33    1
    61    28    29   ar
    62    28    62    1
    63    29    30   ar
    64    29    63    1
    65    30    31   ar
    66    30    64    1
    67    31    32    1
    68    34    35   ar
    69    34    65    1
    70    66    67    1
@<TRIPOS>MOLECULE
ZINC03815537
 45 48 0 0 0
SMALL
USER_CHARGES

@<TRIPOS>ATOM
      1 C1          9.0905   12.7340   14.9770 C.ar    1  <0>1       -0.0460
      2 C2         10.2053   12.6048   15.7806 C.ar    1  <0>1       -0.0388
      3 C3         10.8810   11.3916   15.8469 C.ar    1  <0>1        0.0416
      4 C4         10.4175   10.3105   15.0842 C.ar    1  <0>1        0.0094
      5 C5          9.2889   10.4482   14.2829 C.ar    1  <0>1       -0.0381
      6 C6          8.6310   11.6616   14.2297 C.ar    1  <0>1        0.0186
      7 Br1         7.1018   11.8594   13.1351 Br      1  <0>1       -0.0503
      8 C7         11.3279    9.1792   15.3685 C.2     1  <0>1        0.0479
      9 C8         11.2671    7.9004   14.8484 C.2     1  <0>1       -0.0253
     10 C9         12.3099    6.9857   15.1023 C.ar    1  <0>1        0.0437
     11 C10        12.1787    5.6119   15.2520 C.ar    1  <0>1       -0.0187
     12 C11        13.4530    5.1056   15.4819 C.ar    1  <0>1       -0.0231
     13 C12        14.3307    6.1467   15.4720 C.ar    1  <0>1        0.0199
     14 N1         13.6482    7.2917   15.2416 N.ar    1  <0>1       -0.3579
     15 H1         14.0350    8.1793   15.1831 H       1  <0>1        0.1656
     16 C13        15.8176    5.9949   15.6898 C.3     1  <0>1       -0.0122
     17 C14        16.0771    4.6206   16.3180 C.3     1  <0>1       -0.0474
     18 C15        15.3606    3.5413   15.5021 C.3     1  <0>1       -0.0487
     19 C16        13.8461    3.6667   15.7072 C.3     1  <0>1       -0.0257
     20 C17        10.8987    4.8199   15.1793 C.3     1  <0>1       -0.0154
     21 C18        10.6534    4.3787   13.7348 C.3     1  <0>1        0.0488
     22 C19         9.3734    3.5868   13.6621 C.2     1  <0>1        0.3050
     23 O1          8.7239    3.3948   14.6627 O.2     1  <0>1       -0.2510
     24 C20        12.3137    9.7113   16.3180 C.2     1  <0>1        0.2490
     25 O2         13.2469    9.0950   16.8015 O.2     1  <0>1       -0.2698
     26 N2         12.0067   10.9969   16.5599 N.am    1  <0>1       -0.2809
     27 H2          8.5712   13.6798   14.9307 H       1  <0>1        0.0629
     28 H3         10.5536   13.4479   16.3588 H       1  <0>1        0.0637
     29 H4          8.9317    9.6115   13.7009 H       1  <0>1        0.0635
     30 H5         10.4210    7.6016   14.2475 H       1  <0>1        0.0646
     31 H6         16.1721    6.7777   16.3603 H       1  <0>1        0.0328
     32 H7         16.3376    6.0658   14.7345 H       1  <0>1        0.0328
     33 H8         15.7009    4.6120   17.3410 H       1  <0>1        0.0269
     34 H9         17.1485    4.4203   16.3236 H       1  <0>1        0.0269
     35 H10        15.6917    2.5565   15.8321 H       1  <0>1        0.0269
     36 H11        15.5960    3.6684   14.4454 H       1  <0>1        0.0269
     37 H12        13.5875    3.3703   16.7237 H       1  <0>1        0.0314
     38 H13        13.3249    3.0278   14.9942 H       1  <0>1        0.0314
     39 H14        10.9783    3.9410   15.8190 H       1  <0>1        0.0319
     40 H15        10.0680    5.4402   15.5158 H       1  <0>1        0.0319
     41 H16        10.5738    5.2576   13.0951 H       1  <0>1        0.0381
     42 H17        11.4841    3.7584   13.3983 H       1  <0>1        0.0381
     43 H18        12.5074   11.5759   17.1559 H       1  <0>1        0.1552
     44 O3          8.9547    3.0946   12.4856 O.3     1  <0>1       -0.4806
     45 H           9.4584    3.2434   11.7096 H       1  <0>1        0.2951
@<TRIPOS>BOND
     1     1     6   ar
     2     1     2   ar
     3     1    27    1
     4     2     3   ar
     5     2    28    1
     6     3    26    1
     7     3     4   ar
     8     4     5   ar
     9     4     8    1
    10     5     6   ar
    11     5    29    1
    12     6     7    1
    13     8     9    2
    14     8    24    1
    15     9    10    1
    16     9    30    1
    17    10    14   ar
    18    10    11   ar
    19    11    12   ar
    20    11    20    1
    21    12    19    1
    22    12    13   ar
    23    13    14   ar
    24    13    16    1
    25    14    15    1
    26    16    17    1
    27    16    31    1
    28    16    32    1
    29    17    18    1
    30    17    33    1
    31    17    34    1
    32    18    19    1
    33    18    35    1
    34    18    36    1
    35    19    37    1
    36    19    38    1
    37    20    21    1
    38    20    39    1
    39    20    40    1
    40    21    22    1
    41    21    41    1
    42    21    42    1
    43    22    23    2
    44    22    44    1
    45    24    25    2
    46    24    26   am
    47    26    43    1
    48    44    45    1
@<TRIPOS>MOLECULE
ZINC03815538
 45 48 0 0 0
SMALL
USER_CHARGES

@<TRIPOS>ATOM
      1 C1         14.2482    2.6214   15.7950 C.ar    1  <0>1       -0.0611
      2 C2         13.1583    1.9102   15.3205 C.ar    1  <0>1       -0.0600
      3 C3         11.9937    2.5609   14.9674 C.ar    1  <0>1       -0.0399
      4 C4         11.9035    3.9436   15.0859 C.ar    1  <0>1        0.0416
      5 C5         13.0081    4.6595   15.5668 C.ar    1  <0>1        0.0084
      6 C6         14.1776    3.9939   15.9203 C.ar    1  <0>1       -0.0521
      7 C7         12.6088    6.0843   15.5779 C.2     1  <0>1        0.0479
      8 C8         13.3699    7.1674   15.9740 C.2     1  <0>1       -0.0253
      9 C9         12.8908    8.4780   15.7703 C.ar    1  <0>1        0.0437
     10 C10        13.1283    9.5752   16.5869 C.ar    1  <0>1       -0.0187
     11 C11        12.4706   10.6574   16.0131 C.ar    1  <0>1       -0.0231
     12 C12        11.8516   10.2248   14.8801 C.ar    1  <0>1        0.0199
     13 N1         12.1052    8.9058   14.7196 N.ar    1  <0>1       -0.3579
     14 H1         11.7863    8.3528   13.9895 H       1  <0>1        0.1656
     15 C13        11.0294   11.1155   13.9789 C.3     1  <0>1       -0.0122
     16 C14        10.6778   12.3928   14.7506 C.3     1  <0>1       -0.0474
     17 C15        11.9473   12.9815   15.3718 C.3     1  <0>1       -0.0487
     18 C16        12.4220   12.0786   16.5169 C.3     1  <0>1       -0.0257
     19 C17        13.9439    9.5904   17.8540 C.3     1  <0>1       -0.0154
     20 C18        15.4021    9.9093   17.5182 C.3     1  <0>1        0.0488
     21 C19        16.2176    9.9246   18.7855 C.2     1  <0>1        0.3050
     22 O1         15.6870    9.7030   19.8481 O.2     1  <0>1       -0.2510
     23 C20        11.2263    6.0973   15.0827 C.2     1  <0>1        0.2490
     24 O2         10.5254    7.0838   14.9427 O.2     1  <0>1       -0.2698
     25 N2         10.8712    4.8309   14.8074 N.am    1  <0>1       -0.2809
     26 H2         15.1543    2.1009   16.0679 H       1  <0>1        0.0618
     27 H3         13.2207    0.8362   15.2256 H       1  <0>1        0.0618
     28 H4         11.1508    1.9952   14.5987 H       1  <0>1        0.0636
     29 H5         15.0267    4.5490   16.2906 H       1  <0>1        0.0624
     30 H6         14.3336    7.0103   16.4354 H       1  <0>1        0.0646
     31 H7         10.1147   10.5990   13.6879 H       1  <0>1        0.0328
     32 H8         11.6061   11.3708   13.0899 H       1  <0>1        0.0328
     33 H9          9.9639   12.1556   15.5394 H       1  <0>1        0.0269
     34 H10        10.2367   13.1195   14.0683 H       1  <0>1        0.0269
     35 H11        11.7340   13.9778   15.7591 H       1  <0>1        0.0269
     36 H12        12.7269   13.0460   14.6127 H       1  <0>1        0.0269
     37 H13        11.7253   12.1484   17.3523 H       1  <0>1        0.0314
     38 H14        13.4160   12.3877   16.8402 H       1  <0>1        0.0314
     39 H15        13.5518   10.3509   18.5294 H       1  <0>1        0.0319
     40 H16        13.8870    8.6136   18.3345 H       1  <0>1        0.0319
     41 H17        15.7941    9.1489   16.8429 H       1  <0>1        0.0381
     42 H18        15.4590   10.8861   17.0378 H       1  <0>1        0.0381
     43 H19        10.0030    4.5689   14.4630 H       1  <0>1        0.1552
     44 O3         17.5335   10.1842   18.7335 O.3     1  <0>1       -0.4806
     45 H          17.9450   10.3560   17.9094 H       1  <0>1        0.2951
@<TRIPOS>BOND
     1     1     6   ar
     2     1     2   ar
     3     1    26    1
     4     2     3   ar
     5     2    27    1
     6     3     4   ar
     7     3    28    1
     8     4    25    1
     9     4     5   ar
    10     5     6   ar
    11     5     7    1
    12     6    29    1
    13     7     8    2
    14     7    23    1
    15     8     9    1
    16     8    30    1
    17     9    13   ar
    18     9    10   ar
    19    10    11   ar
    20    10    19    1
    21    11    18    1
    22    11    12   ar
    23    12    13   ar
    24    12    15    1
    25    13    14    1
    26    15    16    1
    27    15    31    1
    28    15    32    1
    29    16    17    1
    30    16    33    1
    31    16    34    1
    32    17    18    1
    33    17    35    1
    34    17    36    1
    35    18    37    1
    36    18    38    1
    37    19    20    1
    38    19    39    1
    39    19    40    1
    40    20    21    1
    41    20    41    1
    42    20    42    1
    43    21    22    2
    44    21    44    1
    45    23    24    2
    46    23    25   am
    47    25    43    1
    48    44    45    1
@<TRIPOS>MOLECULE
ZINC03815545
 60 63 0 0 0
SMALL
USER_CHARGES

@<TRIPOS>ATOM
      1 C1          3.0757   14.1680   20.0991 C.3     1  <0>1       -0.1885
      2 C2          2.5540   15.3109   19.2259 C.3     1  <0>1       -0.0066
      3 C3          2.9290   16.3579   17.0751 C.3     1  <0>1       -0.0080
      4 C4          2.0503   15.4025   16.2651 C.3     1  <0>1       -0.1896
      5 C5          4.6725   16.3846   18.7550 C.3     1  <0>1        0.1673
      6 O1          5.5831   15.4826   19.3869 O.3     1  <0>1       -0.2869
      7 C6          6.4478   14.8120   18.5797 C.ar    1  <0>1        0.0600
      8 C7          7.3586   13.9209   19.1279 C.ar    1  <0>1       -0.0997
      9 C8          8.2371   13.2395   18.3089 C.ar    1  <0>1       -0.0665
     10 C9          8.2086   13.4466   16.9360 C.ar    1  <0>1        0.1604
     11 C10         7.2965   14.3389   16.3880 C.ar    1  <0>1       -0.1029
     12 C11         6.4190   15.0198   17.2085 C.ar    1  <0>1       -0.1967
     13 N1          9.0994   12.7565   16.1049 N.pl3   1  <0>1       -0.6315
     14 C12         9.4885   11.4707   16.4261 C.ar    1  <0>1        0.5992
     15 N2          8.9243   10.8733   17.4704 N.ar    1  <0>1       -0.5761
     16 C13         9.2606    9.6459   17.8192 C.ar    1  <0>1        0.2583
     17 C14        10.2334    8.9753   17.0618 C.ar    1  <0>1       -0.2617
     18 C15        10.6347    7.6593   17.3860 C.ar    1  <0>1        0.0001
     19 C16        11.5874    7.0473   16.6161 C.ar    1  <0>1       -0.1354
     20 C17        12.1653    7.7679   15.4799 C.ar    1  <0>1        0.5460
     21 O2         13.0134    7.2309   14.7898 O.2     1  <0>1       -0.4945
     22 N3         11.7642    9.0216   15.1943 N.ar    1  <0>1       -0.5068
     23 C18        10.8100    9.6426   15.9599 C.ar    1  <0>1        0.4612
     24 N4         10.4061   10.8767   15.6789 N.ar    1  <0>1       -0.5876
     25 C19        12.3526    9.7290   14.0544 C.3     1  <0>1        0.0682
     26 C20        12.0291    5.6682   16.9296 C.ar    1  <0>1       -0.0402
     27 C21        13.3436    5.4278   17.3285 C.ar    1  <0>1       -0.0877
     28 C22        13.7475    4.1421   17.6247 C.ar    1  <0>1       -0.1180
     29 C23        12.8547    3.0910   17.5151 C.ar    1  <0>1       -0.1097
     30 C24        11.5508    3.3225   17.1149 C.ar    1  <0>1       -0.1198
     31 C25        11.1336    4.6046   16.8216 C.ar    1  <0>1       -0.1012
     32 H1          2.2969   13.8589   20.7963 H       1  <0>1        0.1033
     33 H2          3.3526   13.3247   19.4665 H       1  <0>1        0.0753
     34 H3          3.9491   14.5063   20.6566 H       1  <0>1        0.0904
     35 H4          2.3804   16.1911   19.8448 H       1  <0>1        0.1330
     36 H5          1.6194   15.0093   18.7528 H       1  <0>1        0.1290
     37 H6          2.3170   17.1705   17.4669 H       1  <0>1        0.1372
     38 H7          3.7086   16.7674   16.4327 H       1  <0>1        0.1279
     39 H8          1.5721   15.9494   15.4525 H       1  <0>1        0.1093
     40 H9          2.6666   14.6039   15.8523 H       1  <0>1        0.0805
     41 H10         1.2862   14.9737   16.9135 H       1  <0>1        0.0821
     42 H11         4.2990   17.0980   19.4897 H       1  <0>1        0.1740
     43 H12         5.1867   16.9204   17.9571 H       1  <0>1        0.1326
     44 H13         7.3809   13.7602   20.1956 H       1  <0>1        0.1446
     45 H14         8.9491   12.5491   18.7363 H       1  <0>1        0.1535
     46 H15         7.2740   14.5009   15.3205 H       1  <0>1        0.1385
     47 H16         5.7099   15.7141   16.7825 H       1  <0>1        0.1226
     48 H17         9.4432   13.1813   15.3035 H       1  <0>1        0.4300
     49 H18         8.7969    9.1675   18.6691 H       1  <0>1        0.1900
     50 H19        10.1968    7.1446   18.2284 H       1  <0>1        0.1536
     51 H20        13.0858    9.0864   13.5669 H       1  <0>1        0.1028
     52 H21        11.5680    9.9891   13.3438 H       1  <0>1        0.0804
     53 H22        12.8418   10.6381   14.4041 H       1  <0>1        0.0809
     54 H23        14.0428    6.2469   17.4097 H       1  <0>1        0.1207
     55 H24        14.7641    3.9552   17.9380 H       1  <0>1        0.1266
     56 H25        13.1768    2.0857   17.7434 H       1  <0>1        0.1255
     57 H26        10.8582    2.4981   17.0316 H       1  <0>1        0.1266
     58 H27        10.1155    4.7842   16.5092 H       1  <0>1        0.1228
     59 N5          3.5569   15.6037   18.1802 N.4     1  <0>1       -0.4258
     60 H28         3.9242   14.7179   17.8131 H       1  <0>1        0.4270
@<TRIPOS>BOND
     1     1     2    1
     2     1    32    1
     3     1    33    1
     4     1    34    1
     5     2    35    1
     6     2    36    1
     7     2    59    1
     8     3     4    1
     9     3    37    1
    10     3    38    1
    11     3    59    1
    12     4    39    1
    13     4    40    1
    14     4    41    1
    15     5     6    1
    16     5    42    1
    17     5    43    1
    18     5    59    1
    19     6     7    1
    20     7    12   ar
    21     7     8   ar
    22     8     9   ar
    23     8    44    1
    24     9    10   ar
    25     9    45    1
    26    10    11   ar
    27    10    13    1
    28    11    12   ar
    29    11    46    1
    30    12    47    1
    31    13    14    1
    32    13    48    1
    33    14    24   ar
    34    14    15   ar
    35    15    16   ar
    36    16    17   ar
    37    16    49    1
    38    17    23   ar
    39    17    18   ar
    40    18    19   ar
    41    18    50    1
    42    19    20   ar
    43    19    26    1
    44    20    21    2
    45    20    22   ar
    46    22    23   ar
    47    22    25    1
    48    23    24   ar
    49    25    51    1
    50    25    52    1
    51    25    53    1
    52    26    31   ar
    53    26    27   ar
    54    27    28   ar
    55    27    54    1
    56    28    29   ar
    57    28    55    1
    58    29    30   ar
    59    29    56    1
    60    30    31   ar
    61    30    57    1
    62    31    58    1
    63    59    60    1
@<TRIPOS>MOLECULE
ZINC03815546
 52 55 0 0 0
SMALL
USER_CHARGES

@<TRIPOS>ATOM
      1 C1         14.6379    5.7380   15.2576 C.3     1  <0>1       -0.0375
      2 C2         13.1380    5.6333   15.3596 C.ar    1  <0>1       -0.0226
      3 C3         12.3514    4.5560   14.9481 C.ar    1  <0>1       -0.0261
      4 C4         11.0560    4.8582   15.2139 C.ar    1  <0>1        0.0056
      5 N1         10.9980    6.0876   15.7851 N.ar    1  <0>1       -0.3606
      6 H1         10.1903    6.5391   16.0759 H       1  <0>1        0.1653
      7 C5         12.2785    6.5893   15.8794 C.ar    1  <0>1        0.0432
      8 C6         12.6471    7.8417   16.4120 C.2     1  <0>1       -0.0254
      9 C7         11.8100    8.9311   16.2591 C.2     1  <0>1        0.0479
     10 C8         11.9543   10.2692   16.8726 C.ar    1  <0>1        0.0084
     11 C9         12.8989   10.8256   17.7318 C.ar    1  <0>1       -0.0515
     12 C10        12.7661   12.1330   18.1436 C.ar    1  <0>1       -0.0533
     13 C11        11.6857   12.8979   17.6995 C.ar    1  <0>1       -0.0160
     14 C12        10.7362   12.3453   16.8455 C.ar    1  <0>1       -0.0322
     15 C13        10.8657   11.0300   16.4212 C.ar    1  <0>1        0.0421
     16 N2         10.0796   10.2481   15.5829 N.am    1  <0>1       -0.2809
     17 C14        10.5853    9.0100   15.4522 C.2     1  <0>1        0.2490
     18 O1         10.1111    8.1105   14.7814 O.2     1  <0>1       -0.2698
     19 C15        11.5462   14.3056   18.1452 C.ar    1  <0>1       -0.0144
     20 C16        10.4693   15.0747   17.7057 C.ar    1  <0>1       -0.0538
     21 C17        10.3387   16.3826   18.1265 C.ar    1  <0>1       -0.0577
     22 C18        11.2791   16.9371   18.9749 C.ar    1  <0>1       -0.0199
     23 C19        12.3538   16.1783   19.4175 C.ar    1  <0>1        0.1207
     24 C20        12.4901   14.8630   19.0045 C.ar    1  <0>1       -0.0122
     25 O2         13.2727   16.7258   20.2558 O.3     1  <0>1       -0.4951
     26 C21        13.0701   18.0871   20.6405 C.3     1  <0>1        0.0788
     27 C22        12.8529    3.2818   14.3187 C.3     1  <0>1       -0.0159
     28 C23        13.2704    2.3010   15.4162 C.3     1  <0>1        0.0488
     29 C24        13.7720    1.0268   14.7869 C.2     1  <0>1        0.3050
     30 O3         13.7933    0.9148   13.5841 O.2     1  <0>1       -0.2510
     31 H2         15.0925    5.3397   16.1646 H       1  <0>1        0.0278
     32 H3         14.9842    5.1664   14.3965 H       1  <0>1        0.0278
     33 H4         14.9218    6.7835   15.1377 H       1  <0>1        0.0278
     34 H5         10.2083    4.2212   15.0086 H       1  <0>1        0.0810
     35 H6         13.5833    7.9498   16.9393 H       1  <0>1        0.0646
     36 H7         13.7339   10.2327   18.0749 H       1  <0>1        0.0624
     37 H8         13.4971   12.5664   18.8101 H       1  <0>1        0.0624
     38 H9          9.9006   12.9412   16.5093 H       1  <0>1        0.0642
     39 H10         9.2696   10.5568   15.1477 H       1  <0>1        0.1552
     40 H11         9.7358   14.6459   17.0392 H       1  <0>1        0.0624
     41 H12         9.5021   16.9760   17.7886 H       1  <0>1        0.0619
     42 H13        11.1749   17.9625   19.2977 H       1  <0>1        0.0654
     43 H14        13.3257   14.2714   19.3480 H       1  <0>1        0.0660
     44 H15        13.0701   18.7194   19.7527 H       1  <0>1        0.0660
     45 H16        12.1129   18.1810   21.1535 H       1  <0>1        0.0660
     46 H17        13.8727   18.3991   21.3089 H       1  <0>1        0.0660
     47 H18        12.0604    2.8375   13.7166 H       1  <0>1        0.0319
     48 H19        13.7108    3.5034   13.6839 H       1  <0>1        0.0319
     49 H20        14.0629    2.7452   16.0184 H       1  <0>1        0.0381
     50 H21        12.4125    2.0794   16.0511 H       1  <0>1        0.0381
     51 O4         14.1950    0.0164   15.5626 O.3     1  <0>1       -0.4806
     52 H          14.1785    0.1032   16.4954 H       1  <0>1        0.2951
@<TRIPOS>BOND
     1     1     2    1
     2     1    31    1
     3     1    32    1
     4     1    33    1
     5     2     7   ar
     6     2     3   ar
     7     3     4   ar
     8     3    27    1
     9     4     5   ar
    10     4    34    1
    11     5     6    1
    12     5     7   ar
    13     7     8    1
    14     8     9    2
    15     8    35    1
    16     9    17    1
    17     9    10    1
    18    10    15   ar
    19    10    11   ar
    20    11    12   ar
    21    11    36    1
    22    12    13   ar
    23    12    37    1
    24    13    14   ar
    25    13    19    1
    26    14    15   ar
    27    14    38    1
    28    15    16    1
    29    16    17   am
    30    16    39    1
    31    17    18    2
    32    19    24   ar
    33    19    20   ar
    34    20    21   ar
    35    20    40    1
    36    21    22   ar
    37    21    41    1
    38    22    23   ar
    39    22    42    1
    40    23    24   ar
    41    23    25    1
    42    24    43    1
    43    25    26    1
    44    26    44    1
    45    26    45    1
    46    26    46    1
    47    27    28    1
    48    27    47    1
    49    27    48    1
    50    28    29    1
    51    28    49    1
    52    28    50    1
    53    29    30    2
    54    29    51    1
    55    51    52    1
@<TRIPOS>MOLECULE
ZINC03815551
 64 67 0 0 0
SMALL
USER_CHARGES

@<TRIPOS>ATOM
      1 C1         19.9492   13.2053   20.1970 C.3     1  <0>1       -0.1868
      2 C2         20.6742   12.9032   18.8840 C.3     1  <0>1       -0.0152
      3 C3         21.3726   10.7527   19.7505 C.3     1  <0>1       -0.0123
      4 C4         22.8746   11.0341   19.6753 C.3     1  <0>1       -0.1883
      5 C5         19.3253   10.9354   18.4707 C.3     1  <0>1       -0.0074
      6 C6         18.7352   11.5024   17.1779 C.3     1  <0>1       -0.1506
      7 C7         17.3159   10.9641   16.9860 C.3     1  <0>1        0.0625
      8 O1         16.7649   11.4937   15.7786 O.3     1  <0>1       -0.3118
      9 C8         15.4999   11.1116   15.4577 C.ar    1  <0>1        0.1079
     10 C9         14.9045   11.5886   14.2991 C.ar    1  <0>1       -0.1177
     11 C10        13.6198   11.2016   13.9728 C.ar    1  <0>1       -0.0975
     12 C11        12.9238   10.3344   14.8048 C.ar    1  <0>1        0.1338
     13 C12        13.5185    9.8618   15.9675 C.ar    1  <0>1       -0.1066
     14 C13        14.8054   10.2455   16.2893 C.ar    1  <0>1       -0.1823
     15 N1         11.6214    9.9414   14.4747 N.pl3   1  <0>1       -0.6554
     16 C14        11.2356    8.6177   14.6305 C.ar    1  <0>1        0.4378
     17 C15        12.1911    7.6638   14.9539 C.ar    1  <0>1       -0.2923
     18 C16        11.7937    6.3413   15.1081 C.ar    1  <0>1        0.2696
     19 C17        10.4287    6.0262   14.9277 C.ar    1  <0>1       -0.2274
     20 C18         9.9878    4.6893   15.0708 C.ar    1  <0>1        0.0259
     21 C19        10.8970    3.7197   15.3960 C.ar    1  <0>1       -0.1621
     22 C20        12.3052    4.0803   15.5755 C.ar    1  <0>1        0.5548
     23 O2         13.1201    3.2205   15.8595 O.2     1  <0>1       -0.5118
     24 N2         12.7028    5.3593   15.4282 N.ar    1  <0>1       -0.6310
     25 H1         13.6662    5.5966   15.5526 H       1  <0>1        0.4227
     26 C21        10.4610    2.3132   15.5580 C.ar    1  <0>1       -0.0133
     27 C22        10.0600    1.8436   16.8094 C.ar    1  <0>1       -0.0067
     28 C23         9.6492    0.5328   16.9526 C.ar    1  <0>1       -0.1063
     29 C24         9.6451   -0.3171   15.8612 C.ar    1  <0>1       -0.0863
     30 C25        10.0473    0.1404   14.6192 C.ar    1  <0>1       -0.1058
     31 C26        10.4550    1.4505   14.4612 C.ar    1  <0>1       -0.0072
     32 Cl1        10.9593    2.0226   12.9017 Cl      1  <0>1       -0.0503
     33 Cl2        10.0707    2.9067   18.1819 Cl      1  <0>1       -0.0524
     34 C27         9.5318    7.0511   14.6025 C.ar    1  <0>1        0.2337
     35 N3          9.9588    8.2878   14.4678 N.ar    1  <0>1       -0.5473
     36 H2         18.9586   12.7511   20.1780 H       1  <0>1        0.0788
     37 H3         20.5206   12.7962   21.0301 H       1  <0>1        0.0817
     38 H4         19.8519   14.2842   20.3183 H       1  <0>1        0.1068
     39 H5         21.6985   13.2716   18.9414 H       1  <0>1        0.1309
     40 H6         20.1564   13.3960   18.0612 H       1  <0>1        0.1301
     41 H7         20.9842   11.1057   20.7058 H       1  <0>1        0.1338
     42 H8         21.1990    9.6803   19.6615 H       1  <0>1        0.1291
     43 H9         23.3935   10.4409   20.4282 H       1  <0>1        0.1067
     44 H10        23.2449   10.7686   18.6851 H       1  <0>1        0.0800
     45 H11        23.0555   12.0932   19.8590 H       1  <0>1        0.0803
     46 H12        18.7053   11.2359   19.3155 H       1  <0>1        0.1361
     47 H13        19.3543    9.8475   18.4103 H       1  <0>1        0.1334
     48 H14        19.3551   11.2018   16.3332 H       1  <0>1        0.0992
     49 H15        18.7062   12.5903   17.2384 H       1  <0>1        0.0990
     50 H16        16.6961   11.2647   17.8307 H       1  <0>1        0.0723
     51 H17        17.3450    9.8762   16.9257 H       1  <0>1        0.0727
     52 H18        15.4458   12.2633   13.6524 H       1  <0>1        0.1396
     53 H19        13.1566   11.5727   13.0705 H       1  <0>1        0.1409
     54 H20        12.9762    9.1910   16.6173 H       1  <0>1        0.1355
     55 H21        15.2697    9.8746   17.1911 H       1  <0>1        0.1307
     56 H22        10.9886   10.5945   14.1370 H       1  <0>1        0.4216
     57 H23        13.2257    7.9450   15.0838 H       1  <0>1        0.1472
     58 H24         8.9468    4.4385   14.9306 H       1  <0>1        0.1484
     59 H25         9.3343    0.1693   17.9197 H       1  <0>1        0.1441
     60 H26         9.3269   -1.3424   15.9792 H       1  <0>1        0.1464
     61 H27        10.0421   -0.5283   13.7712 H       1  <0>1        0.1445
     62 H28         8.4851    6.8252   14.4620 H       1  <0>1        0.1786
     63 N4         20.7026   11.4472   18.6308 N.4     1  <0>1       -0.3945
     64 H29        21.2271   11.2691   17.7663 H       1  <0>1        0.4296
@<TRIPOS>BOND
     1     1     2    1
     2     1    36    1
     3     1    37    1
     4     1    38    1
     5     2    39    1
     6     2    40    1
     7     2    63    1
     8     3     4    1
     9     3    41    1
    10     3    42    1
    11     3    63    1
    12     4    43    1
    13     4    44    1
    14     4    45    1
    15     5     6    1
    16     5    46    1
    17     5    47    1
    18     5    63    1
    19     6     7    1
    20     6    48    1
    21     6    49    1
    22     7     8    1
    23     7    50    1
    24     7    51    1
    25     8     9    1
    26     9    14   ar
    27     9    10   ar
    28    10    11   ar
    29    10    52    1
    30    11    12   ar
    31    11    53    1
    32    12    13   ar
    33    12    15    1
    34    13    14   ar
    35    13    54    1
    36    14    55    1
    37    15    16    1
    38    15    56    1
    39    16    35   ar
    40    16    17   ar
    41    17    18   ar
    42    17    57    1
    43    18    24   ar
    44    18    19   ar
    45    19    20   ar
    46    19    34   ar
    47    20    21   ar
    48    20    58    1
    49    21    22   ar
    50    21    26    1
    51    22    23    2
    52    22    24   ar
    53    24    25    1
    54    26    31   ar
    55    26    27   ar
    56    27    28   ar
    57    27    33    1
    58    28    29   ar
    59    28    59    1
    60    29    30   ar
    61    29    60    1
    62    30    31   ar
    63    30    61    1
    64    31    32    1
    65    34    35   ar
    66    34    62    1
    67    63    64    1
@<TRIPOS>MOLECULE
ZINC03815556
 44 47 0 0 0
SMALL
USER_CHARGES

@<TRIPOS>ATOM
      1 C1         12.3877    9.7468   14.0846 C.3     1  <0>1        0.0695
      2 N1         11.7642    9.0216   15.1943 N.ar    1  <0>1       -0.5057
      3 C2         10.7927    9.6340   15.9451 C.ar    1  <0>1        0.4688
      4 C3         10.1817    8.9492   17.0179 C.ar    1  <0>1       -0.2761
      5 C4         10.5665    7.6247   17.3276 C.ar    1  <0>1        0.0309
      6 C5         11.5365    7.0216   16.5726 C.ar    1  <0>1       -0.1636
      7 C6         12.1500    7.7602   15.4668 C.ar    1  <0>1        0.5571
      8 O1         13.0134    7.2310   14.7898 O.2     1  <0>1       -0.5007
      9 C7         11.9619    5.6343   16.8719 C.ar    1  <0>1       -0.0103
     10 C8         13.0125    5.3997   17.7597 C.ar    1  <0>1       -0.0062
     11 C9         13.4010    4.1038   18.0381 C.ar    1  <0>1       -0.1064
     12 C10        12.7575    3.0402   17.4312 C.ar    1  <0>1       -0.0873
     13 C11        11.7188    3.2661   16.5462 C.ar    1  <0>1       -0.1064
     14 C12        11.3173    4.5569   16.2629 C.ar    1  <0>1       -0.0064
     15 Cl1        10.0142    4.8384   15.1510 Cl      1  <0>1       -0.0503
     16 Cl2        13.8256    6.7334   18.5173 Cl      1  <0>1       -0.0498
     17 C13         9.1934    9.6118   17.7612 C.ar    1  <0>1        0.2678
     18 N2          8.8786   10.8503   17.4309 N.ar    1  <0>1       -0.5753
     19 C14         9.4711   11.4619   16.4112 C.ar    1  <0>1        0.6090
     20 N3         10.4089   10.8777   15.6810 N.ar    1  <0>1       -0.5936
     21 N4          9.0994   12.7564   16.1049 N.pl3   1  <0>1       -0.6094
     22 C15         8.2021   13.4421   16.9335 C.ar    1  <0>1        0.0775
     23 C16         8.0733   13.0967   18.2695 C.ar    1  <0>1        0.1319
     24 N5          7.2293   13.7399   19.0537 N.ar    1  <0>1       -0.4849
     25 C17         6.4787   14.7292   18.6080 C.ar    1  <0>1        0.1188
     26 C18         6.5517   15.1387   17.2912 C.ar    1  <0>1       -0.2407
     27 C19         7.4226   14.4859   16.4258 C.ar    1  <0>1        0.1399
     28 O2          7.5177   14.8564   15.1224 O.3     1  <0>1       -0.3144
     29 C20         6.6829   15.9332   14.6914 C.3     1  <0>1        0.0266
     30 H1         13.2626   10.2854   14.4487 H       1  <0>1        0.0750
     31 H2         12.6918    9.0391   13.3132 H       1  <0>1        0.0924
     32 H3         11.6729   10.4554   13.6663 H       1  <0>1        0.0952
     33 H4         10.1020    7.0964   18.1470 H       1  <0>1        0.1516
     34 H5         14.2115    3.9207   18.7279 H       1  <0>1        0.1438
     35 H6         13.0679    2.0290   17.6492 H       1  <0>1        0.1453
     36 H7         11.2208    2.4314   16.0755 H       1  <0>1        0.1437
     37 H8          8.7039    9.1205   18.5891 H       1  <0>1        0.1911
     38 H9          9.4599   13.1908   15.3160 H       1  <0>1        0.4314
     39 H10         8.6701   12.2921   18.6731 H       1  <0>1        0.1869
     40 H11         5.8010   15.2292   19.2841 H       1  <0>1        0.1615
     41 H12         5.9367   15.9528   16.9370 H       1  <0>1        0.1446
     42 H13         5.6373   15.6660   14.8444 H       1  <0>1        0.0608
     43 H14         6.8574   16.1270   13.6331 H       1  <0>1        0.1059
     44 H15         6.9173   16.8280   15.2681 H       1  <0>1        0.0609
@<TRIPOS>BOND
     1     1     2    1
     2     1    30    1
     3     1    31    1
     4     1    32    1
     5     2     7   ar
     6     2     3   ar
     7     3    20   ar
     8     3     4   ar
     9     4     5   ar
    10     4    17   ar
    11     5     6   ar
    12     5    33    1
    13     6     7   ar
    14     6     9    1
    15     7     8    2
    16     9    14   ar
    17     9    10   ar
    18    10    11   ar
    19    10    16    1
    20    11    12   ar
    21    11    34    1
    22    12    13   ar
    23    12    35    1
    24    13    14   ar
    25    13    36    1
    26    14    15    1
    27    17    18   ar
    28    17    37    1
    29    18    19   ar
    30    19    20   ar
    31    19    21    1
    32    21    22    1
    33    21    38    1
    34    22    27   ar
    35    22    23   ar
    36    23    24   ar
    37    23    39    1
    38    24    25   ar
    39    25    26   ar
    40    25    40    1
    41    26    27   ar
    42    26    41    1
    43    27    28    1
    44    28    29    1
    45    29    42    1
    46    29    43    1
    47    29    44    1
@<TRIPOS>MOLECULE
ZINC03815556
 45 48 0 0 0
SMALL
USER_CHARGES

@<TRIPOS>ATOM
      1 C1         12.3877    9.7468   14.0846 C.3     1  <0>1        0.0652
      2 N1         11.7642    9.0216   15.1943 N.ar    1  <0>1       -0.5031
      3 C2         10.7927    9.6340   15.9451 C.ar    1  <0>1        0.4694
      4 C3         10.1817    8.9492   17.0179 C.ar    1  <0>1       -0.2471
      5 C4         10.5665    7.6247   17.3276 C.ar    1  <0>1        0.0071
      6 C5         11.5365    7.0216   16.5726 C.ar    1  <0>1       -0.1291
      7 C6         12.1500    7.7602   15.4668 C.ar    1  <0>1        0.5508
      8 O1         13.0134    7.2310   14.7898 O.2     1  <0>1       -0.4800
      9 C7         11.9619    5.6343   16.8719 C.ar    1  <0>1       -0.0260
     10 C8         13.0125    5.3997   17.7597 C.ar    1  <0>1       -0.0045
     11 C9         13.4010    4.1038   18.0381 C.ar    1  <0>1       -0.1040
     12 C10        12.7575    3.0402   17.4312 C.ar    1  <0>1       -0.0805
     13 C11        11.7188    3.2661   16.5462 C.ar    1  <0>1       -0.1038
     14 C12        11.3173    4.5569   16.2629 C.ar    1  <0>1       -0.0047
     15 Cl1        10.0142    4.8384   15.1510 Cl      1  <0>1       -0.0498
     16 Cl2        13.8256    6.7334   18.5173 Cl      1  <0>1       -0.0505
     17 C13         9.1934    9.6118   17.7612 C.ar    1  <0>1        0.2641
     18 N2          8.8786   10.8503   17.4309 N.ar    1  <0>1       -0.5993
     19 C14         9.4711   11.4619   16.4112 C.ar    1  <0>1        0.5939
     20 N3         10.4089   10.8777   15.6810 N.ar    1  <0>1       -0.5740
     21 N4          9.0994   12.7564   16.1049 N.pl3   1  <0>1       -0.6096
     22 C15         8.2021   13.4421   16.9335 C.ar    1  <0>1        0.1428
     23 C16         8.0733   13.0967   18.2695 C.ar    1  <0>1        0.1371
     24 C17         6.4787   14.7292   18.6080 C.ar    1  <0>1        0.1599
     25 C18         6.5517   15.1387   17.2912 C.ar    1  <0>1       -0.2032
     26 C19         7.4226   14.4859   16.4258 C.ar    1  <0>1        0.2265
     27 O2          7.5177   14.8564   15.1224 O.3     1  <0>1       -0.2810
     28 C20         6.6829   15.9332   14.6914 C.3     1  <0>1        0.0097
     29 H1         13.2626   10.2854   14.4487 H       1  <0>1        0.0800
     30 H2         12.6918    9.0391   13.3132 H       1  <0>1        0.0980
     31 H3         11.6729   10.4554   13.6663 H       1  <0>1        0.0968
     32 H4         10.1020    7.0964   18.1470 H       1  <0>1        0.1575
     33 H5         14.2115    3.9207   18.7279 H       1  <0>1        0.1469
     34 H6         13.0679    2.0290   17.6492 H       1  <0>1        0.1491
     35 H7         11.2208    2.4314   16.0755 H       1  <0>1        0.1470
     36 H8          8.7039    9.1205   18.5891 H       1  <0>1        0.1972
     37 H9          9.4599   13.1908   15.3160 H       1  <0>1        0.4468
     38 H10         8.6701   12.2921   18.6731 H       1  <0>1        0.2204
     39 H11         5.8010   15.2292   19.2841 H       1  <0>1        0.2023
     40 H12         5.9367   15.9528   16.9370 H       1  <0>1        0.1935
     41 H13         5.6373   15.6660   14.8444 H       1  <0>1        0.0791
     42 H14         6.8574   16.1270   13.6331 H       1  <0>1        0.1282
     43 H15         6.9173   16.8280   15.2681 H       1  <0>1        0.0794
     44 N5          7.2233   13.7181   19.1313 N.ar    1  <0>1       -0.4800
     45 H16         7.1486   13.4407   20.1170 H       1  <0>1        0.4818
@<TRIPOS>BOND
     1     1     2    1
     2     1    29    1
     3     1    30    1
     4     1    31    1
     5     2     7   ar
     6     2     3   ar
     7     3    20   ar
     8     3     4   ar
     9     4     5   ar
    10     4    17   ar
    11     5     6   ar
    12     5    32    1
    13     6     7   ar
    14     6     9    1
    15     7     8    2
    16     9    14   ar
    17     9    10   ar
    18    10    11   ar
    19    10    16    1
    20    11    12   ar
    21    11    33    1
    22    12    13   ar
    23    12    34    1
    24    13    14   ar
    25    13    35    1
    26    14    15    1
    27    17    18   ar
    28    17    36    1
    29    18    19   ar
    30    19    20   ar
    31    19    21    1
    32    21    22    1
    33    21    37    1
    34    22    26   ar
    35    22    23   ar
    36    23    38    1
    37    23    44   ar
    38    24    25   ar
    39    24    39    1
    40    24    44   ar
    41    25    26   ar
    42    25    40    1
    43    26    27    1
    44    27    28    1
    45    28    41    1
    46    28    42    1
    47    28    43    1
    48    44    45    1
@<TRIPOS>MOLECULE
ZINC03815557
 34 36 0 0 0
SMALL
USER_CHARGES

@<TRIPOS>ATOM
      1 C1         13.2305    8.9264   16.2392 C.3     1  <0>1       -0.1624
      2 C2         13.1256    8.0908   14.9619 C.3     1  <0>1        0.0978
      3 N1         12.3770    6.8629   15.2417 N.ar    1  <0>1       -0.5036
      4 C3         13.0468    5.7378   15.6510 C.ar    1  <0>1        0.4704
      5 C4         12.3407    4.5463   15.9244 C.ar    1  <0>1       -0.2868
      6 C5         10.9352    4.5029   15.7782 C.ar    1  <0>1        0.0337
      7 C6         10.2754    5.6306   15.3693 C.ar    1  <0>1       -0.1699
      8 C7         11.0383    6.8501   15.0941 C.ar    1  <0>1        0.5584
      9 O1         10.4586    7.8593   14.7346 O.2     1  <0>1       -0.5032
     10 C8          8.8028    5.6173   15.2060 C.ar    1  <0>1       -0.0080
     11 C9          8.2371    5.2754   13.9771 C.ar    1  <0>1       -0.0069
     12 C10         6.8636    5.2604   13.8331 C.ar    1  <0>1       -0.1067
     13 C11         6.0494    5.5934   14.9006 C.ar    1  <0>1       -0.0883
     14 C12         6.6040    5.9383   16.1201 C.ar    1  <0>1       -0.1067
     15 C13         7.9759    5.9522   16.2789 C.ar    1  <0>1       -0.0068
     16 Cl1         8.6699    6.3860   17.8099 Cl      1  <0>1       -0.0506
     17 Cl2         9.2573    4.8637   12.6342 Cl      1  <0>1       -0.0506
     18 C14        13.0633    3.4185   16.3409 C.ar    1  <0>1        0.2695
     19 N2         14.3742    3.5167   16.4606 N.ar    1  <0>1       -0.5837
     20 C15        15.0056    4.6549   16.1946 C.ar    1  <0>1        0.6146
     21 N3         14.3669    5.7451   15.7987 N.ar    1  <0>1       -0.6036
     22 N4         16.3781    4.7028   16.3367 N.pl3   1  <0>1       -0.8060
     23 H1         12.2305    9.1823   16.5892 H       1  <0>1        0.0604
     24 H2         13.7485    8.3522   17.0074 H       1  <0>1        0.0595
     25 H3         13.7875    9.8400   16.0310 H       1  <0>1        0.0764
     26 H4         14.1256    7.8348   14.6119 H       1  <0>1        0.1006
     27 H5         12.6076    8.6649   14.1936 H       1  <0>1        0.0970
     28 H6         10.3902    3.5939   15.9858 H       1  <0>1        0.1488
     29 H7          6.4243    4.9919   12.8836 H       1  <0>1        0.1434
     30 H8          4.9761    5.5844   14.7815 H       1  <0>1        0.1450
     31 H9          5.9629    6.1970   16.9497 H       1  <0>1        0.1433
     32 H10        12.5578    2.4894   16.5595 H       1  <0>1        0.1857
     33 H11        16.8568    5.5250   16.1475 H       1  <0>1        0.4185
     34 H12        16.8636    3.9144   16.6257 H       1  <0>1        0.4206
@<TRIPOS>BOND
     1     1     2    1
     2     1    23    1
     3     1    24    1
     4     1    25    1
     5     2     3    1
     6     2    26    1
     7     2    27    1
     8     3     8   ar
     9     3     4   ar
    10     4    21   ar
    11     4     5   ar
    12     5     6   ar
    13     5    18   ar
    14     6     7   ar
    15     6    28    1
    16     7     8   ar
    17     7    10    1
    18     8     9    2
    19    10    15   ar
    20    10    11   ar
    21    11    12   ar
    22    11    17    1
    23    12    13   ar
    24    12    29    1
    25    13    14   ar
    26    13    30    1
    27    14    15   ar
    28    14    31    1
    29    15    16    1
    30    18    19   ar
    31    18    32    1
    32    19    20   ar
    33    20    21   ar
    34    20    22    1
    35    22    33    1
    36    22    34    1
@<TRIPOS>MOLECULE
ZINC03815559
 49 51 0 0 0
SMALL
USER_CHARGES

@<TRIPOS>ATOM
      1 C1         10.7356   10.6455   18.3269 C.3     1  <0>1        0.0167
      2 N1         10.7778   11.3984   17.0709 N.ar    1  <0>1       -0.2953
      3 C2         11.2648   10.7999   15.9364 C.ar    1  <0>1        0.1482
      4 C3         11.3120   11.5112   14.7179 C.ar    1  <0>1        0.0365
      5 C4         10.8565   12.8481   14.6566 C.ar    1  <0>1       -0.0366
      6 C5         10.3722   13.4370   15.7937 C.ar    1  <0>1        0.0502
      7 C6         10.3376   12.6711   17.0415 C.ar    1  <0>1        0.2604
      8 O1          9.9083   13.1873   18.0579 O.2     1  <0>1       -0.2670
      9 C7          9.8878   14.8369   15.7624 C.ar    1  <0>1        0.0239
     10 C8         10.7670   15.8886   16.0233 C.ar    1  <0>1        0.0502
     11 C9         10.3101   17.1915   15.9877 C.ar    1  <0>1       -0.0427
     12 C10         8.9819   17.4544   15.7042 C.ar    1  <0>1       -0.0590
     13 C11         8.1041   16.4161   15.4497 C.ar    1  <0>1       -0.0427
     14 C12         8.5491   15.1089   15.4774 C.ar    1  <0>1        0.0502
     15 Cl1         7.4456   13.8072   15.1591 Cl      1  <0>1       -0.0829
     16 Cl2        12.4326   15.5604   16.3858 Cl      1  <0>1       -0.0829
     17 C13        11.8176   10.8627   13.5815 C.ar    1  <0>1        0.0418
     18 N2         12.2337    9.6155   13.6986 N.ar    1  <0>1       -0.2222
     19 C14        12.1693    8.9752   14.8608 C.ar    1  <0>1        0.2170
     20 N3         11.7004    9.5452   15.9600 N.ar    1  <0>1       -0.1964
     21 N4         12.6128    7.6694   14.9261 N.pl3   1  <0>1       -0.3134
     22 C15        13.1369    7.0129   13.7258 C.3     1  <0>1        0.0118
     23 C16        13.5564    5.5821   14.0692 C.3     1  <0>1       -0.0374
     24 C17        14.1038    4.8965   12.8157 C.3     1  <0>1       -0.0511
     25 C18        14.5233    3.4658   13.1590 C.3     1  <0>1       -0.0429
     26 C19        15.0706    2.7801   11.9055 C.3     1  <0>1        0.0448
     27 C20        15.4838    1.3709   12.2437 C.2     1  <0>1        0.3047
     28 O2         15.3540    0.9573   13.3715 O.2     1  <0>1       -0.2510
     29 H1         11.6701   10.7905   18.8690 H       1  <0>1        0.0457
     30 H2          9.9037   11.0001   18.9354 H       1  <0>1        0.0457
     31 H3         10.6017    9.5855   18.1107 H       1  <0>1        0.0457
     32 H4         10.8897   13.3965   13.7268 H       1  <0>1        0.0633
     33 H5         10.9903   18.0066   16.1858 H       1  <0>1        0.0632
     34 H6          8.6287   18.4748   15.6816 H       1  <0>1        0.0618
     35 H7          7.0682   16.6280   15.2294 H       1  <0>1        0.0632
     36 H8         11.8694   11.3744   12.6318 H       1  <0>1        0.0838
     37 H9         12.5775    7.1867   15.7667 H       1  <0>1        0.1489
     38 H10        14.0005    7.5661   13.3568 H       1  <0>1        0.0462
     39 H11        12.3642    6.9904   12.9573 H       1  <0>1        0.0462
     40 H12        14.3291    5.6046   14.8377 H       1  <0>1        0.0280
     41 H13        12.6929    5.0289   14.4383 H       1  <0>1        0.0280
     42 H14        13.3311    4.8740   12.0472 H       1  <0>1        0.0266
     43 H15        14.9674    5.4497   12.4466 H       1  <0>1        0.0266
     44 H16        15.2959    3.4882   13.9275 H       1  <0>1        0.0270
     45 H17        13.6597    2.9124   13.5280 H       1  <0>1        0.0270
     46 H18        14.2979    2.7576   11.1369 H       1  <0>1        0.0377
     47 H19        15.9341    3.3333   11.5364 H       1  <0>1        0.0377
     48 O3         15.9962    0.5750   11.2919 O.3     1  <0>1       -0.4806
     49 H          16.0969    0.8957   10.4172 H       1  <0>1        0.2951
@<TRIPOS>BOND
     1     1     2    1
     2     1    29    1
     3     1    30    1
     4     1    31    1
     5     2     7   ar
     6     2     3   ar
     7     3    20   ar
     8     3     4   ar
     9     4     5   ar
    10     4    17   ar
    11     5     6   ar
    12     5    32    1
    13     6     7   ar
    14     6     9    1
    15     7     8    2
    16     9    14   ar
    17     9    10   ar
    18    10    11   ar
    19    10    16    1
    20    11    12   ar
    21    11    33    1
    22    12    13   ar
    23    12    34    1
    24    13    14   ar
    25    13    35    1
    26    14    15    1
    27    17    18   ar
    28    17    36    1
    29    18    19   ar
    30    19    20   ar
    31    19    21    1
    32    21    22    1
    33    21    37    1
    34    22    23    1
    35    22    38    1
    36    22    39    1
    37    23    24    1
    38    23    40    1
    39    23    41    1
    40    24    25    1
    41    24    42    1
    42    24    43    1
    43    25    26    1
    44    25    44    1
    45    25    45    1
    46    26    27    1
    47    26    46    1
    48    26    47    1
    49    27    28    2
    50    27    48    1
    51    48    49    1
@<TRIPOS>MOLECULE
ZINC03815788
 35 37 0 0 0
SMALL
USER_CHARGES

@<TRIPOS>ATOM
      1 C1         11.7279    8.0279   14.9141 C.3     1  <0>1        0.0227
      2 O1         11.8313    8.9229   13.8048 O.3     1  <0>1       -0.3018
      3 C2         11.1974   10.1203   13.9168 C.ar    1  <0>1        0.1252
      4 C3         10.5047   10.4138   15.0550 C.ar    1  <0>1       -0.1738
      5 C4          9.8495   11.6515   15.1707 C.ar    1  <0>1       -0.0882
      6 C5          9.1273   11.9859   16.3289 C.ar    1  <0>1       -0.0457
      7 C6          8.5055   13.2253   16.3741 C.ar    1  <0>1       -0.0909
      8 C7          8.6153   14.0944   15.2776 C.ar    1  <0>1        0.1428
      9 N1          9.2924   13.7647   14.2068 N.ar    1  <0>1       -0.4695
     10 C8          9.9135   12.5842   14.1040 C.ar    1  <0>1        0.1399
     11 C9         10.6356   12.2509   12.9459 C.ar    1  <0>1       -0.1712
     12 C10        11.2618   11.0414   12.8605 C.ar    1  <0>1        0.1399
     13 O2         11.9578   10.7251   11.7371 O.3     1  <0>1       -0.3012
     14 C11        11.9876   11.7029   10.6955 C.3     1  <0>1        0.0216
     15 C12         7.7305   13.6292   17.5730 C.ar    1  <0>1       -0.1676
     16 C13         8.3829   13.8065   18.8125 C.ar    1  <0>1       -0.0014
     17 C14         7.6525   14.1817   19.8989 C.ar    1  <0>1       -0.3050
     18 C15         6.2679   14.3859   19.7637 C.ar    1  <0>1        0.3829
     19 O3          5.6060   14.7230   20.7321 O.3     1  <0>1       -0.3991
     20 N2          5.6683   14.2059   18.5722 N.ar    1  <0>1       -0.5330
     21 H1          6.2031   14.8110   21.5295 H       1  <0>1        0.4287
     22 C16         6.3835   13.8310   17.4828 C.ar    1  <0>1        0.1657
     23 H2         10.6794    7.7888   15.0916 H       1  <0>1        0.0583
     24 H3         12.2774    7.1124   14.6947 H       1  <0>1        0.1052
     25 H4         12.1484    8.4999   15.8021 H       1  <0>1        0.0580
     26 H5         10.4600    9.6983   15.8628 H       1  <0>1        0.1449
     27 H6          9.0587   11.2987   17.1593 H       1  <0>1        0.1381
     28 H7          8.1293   15.0580   15.3180 H       1  <0>1        0.1602
     29 H8         10.6943   12.9500   12.1247 H       1  <0>1        0.1511
     30 H9         12.4399   12.6207   11.0715 H       1  <0>1        0.0600
     31 H10        12.5750   11.3248    9.8588 H       1  <0>1        0.1056
     32 H11        10.9707   11.9094   10.3616 H       1  <0>1        0.0603
     33 H12         9.4475   13.6467   18.8978 H       1  <0>1        0.1328
     34 H13         8.1342   14.3297   20.8542 H       1  <0>1        0.1417
     35 H14         5.8832   13.6912   16.5358 H       1  <0>1        0.1628
@<TRIPOS>BOND
     1     1     2    1
     2     1    23    1
     3     1    24    1
     4     1    25    1
     5     2     3    1
     6     3    12   ar
     7     3     4   ar
     8     4     5   ar
     9     4    26    1
    10     5    10   ar
    11     5     6   ar
    12     6     7   ar
    13     6    27    1
    14     7     8   ar
    15     7    15    1
    16     8     9   ar
    17     8    28    1
    18     9    10   ar
    19    10    11   ar
    20    11    12   ar
    21    11    29    1
    22    12    13    1
    23    13    14    1
    24    14    30    1
    25    14    31    1
    26    14    32    1
    27    15    16   ar
    28    15    22   ar
    29    16    33    1
    30    16    17   ar
    31    17    34    1
    32    17    18   ar
    33    18    20   ar
    34    18    19    1
    35    19    21    1
    36    20    22   ar
    37    22    35    1
@<TRIPOS>MOLECULE
ZINC03815788
 35 37 0 0 0
SMALL
USER_CHARGES

@<TRIPOS>ATOM
      1 C1         11.7279    8.0279   14.9141 C.3     1  <0>1        0.0227
      2 O1         11.8313    8.9229   13.8048 O.3     1  <0>1       -0.3018
      3 C2         11.1974   10.1203   13.9168 C.ar    1  <0>1        0.1252
      4 C3         10.5047   10.4138   15.0550 C.ar    1  <0>1       -0.1738
      5 C4          9.8495   11.6515   15.1707 C.ar    1  <0>1       -0.0882
      6 C5          9.1273   11.9859   16.3289 C.ar    1  <0>1       -0.0457
      7 C6          8.5055   13.2253   16.3741 C.ar    1  <0>1       -0.0909
      8 C7          8.6153   14.0944   15.2776 C.ar    1  <0>1        0.1428
      9 N1          9.2924   13.7647   14.2068 N.ar    1  <0>1       -0.4695
     10 C8          9.9135   12.5842   14.1040 C.ar    1  <0>1        0.1399
     11 C9         10.6356   12.2509   12.9459 C.ar    1  <0>1       -0.1712
     12 C10        11.2618   11.0414   12.8605 C.ar    1  <0>1        0.1399
     13 O2         11.9578   10.7251   11.7371 O.3     1  <0>1       -0.3012
     14 C11        11.9876   11.7029   10.6955 C.3     1  <0>1        0.0216
     15 C12         7.7305   13.6292   17.5730 C.ar    1  <0>1       -0.1676
     16 C13         8.3829   13.8065   18.8125 C.ar    1  <0>1       -0.0014
     17 C14         7.6525   14.1817   19.8989 C.ar    1  <0>1       -0.3050
     18 C15         6.2679   14.3859   19.7637 C.ar    1  <0>1        0.3829
     19 O3          5.6060   14.7230   20.7321 O.3     1  <0>1       -0.3991
     20 N2          5.6683   14.2059   18.5722 N.ar    1  <0>1       -0.5330
     21 H1          6.2031   14.8110   21.5295 H       1  <0>1        0.4287
     22 C16         6.3835   13.8310   17.4828 C.ar    1  <0>1        0.1657
     23 H2         10.6794    7.7888   15.0916 H       1  <0>1        0.0583
     24 H3         12.2774    7.1124   14.6947 H       1  <0>1        0.1052
     25 H4         12.1484    8.4999   15.8021 H       1  <0>1        0.0580
     26 H5         10.4600    9.6983   15.8628 H       1  <0>1        0.1449
     27 H6          9.0587   11.2987   17.1593 H       1  <0>1        0.1381
     28 H7          8.1293   15.0580   15.3180 H       1  <0>1        0.1602
     29 H8         10.6943   12.9500   12.1247 H       1  <0>1        0.1511
     30 H9         12.4399   12.6207   11.0715 H       1  <0>1        0.0600
     31 H10        12.5750   11.3248    9.8588 H       1  <0>1        0.1056
     32 H11        10.9707   11.9094   10.3616 H       1  <0>1        0.0603
     33 H12         9.4475   13.6467   18.8978 H       1  <0>1        0.1328
     34 H13         8.1342   14.3297   20.8542 H       1  <0>1        0.1417
     35 H14         5.8832   13.6912   16.5358 H       1  <0>1        0.1628
@<TRIPOS>BOND
     1     1     2    1
     2     1    23    1
     3     1    24    1
     4     1    25    1
     5     2     3    1
     6     3    12   ar
     7     3     4   ar
     8     4     5   ar
     9     4    26    1
    10     5    10   ar
    11     5     6   ar
    12     6     7   ar
    13     6    27    1
    14     7     8   ar
    15     7    15    1
    16     8     9   ar
    17     8    28    1
    18     9    10   ar
    19    10    11   ar
    20    11    12   ar
    21    11    29    1
    22    12    13    1
    23    13    14    1
    24    14    30    1
    25    14    31    1
    26    14    32    1
    27    15    16   ar
    28    15    22   ar
    29    16    33    1
    30    16    17   ar
    31    17    34    1
    32    17    18   ar
    33    18    20   ar
    34    18    19    1
    35    19    21    1
    36    20    22   ar
    37    22    35    1
@<TRIPOS>MOLECULE
ZINC03815789
 38 40 0 0 0
SMALL
USER_CHARGES

@<TRIPOS>ATOM
      1 C1          9.2384   15.2509   20.4505 C.3     1  <0>1        0.0225
      2 O1          9.0687   14.1805   19.5191 O.3     1  <0>1       -0.3031
      3 C2          8.2990   13.1354   19.9151 C.ar    1  <0>1        0.1821
      4 C3          7.7126   13.1176   21.1763 C.ar    1  <0>1       -0.2594
      5 C4          6.9316   12.0396   21.5409 C.ar    1  <0>1        0.1402
      6 N1          6.7431   11.0249   20.7178 N.ar    1  <0>1       -0.5040
      7 C5          7.2811   10.9920   19.5151 C.ar    1  <0>1        0.1500
      8 C6          8.0778   12.0407   19.0654 C.ar    1  <0>1       -0.1314
      9 C7          8.6829   12.0018   17.7120 C.ar    1  <0>1       -0.0896
     10 C8          9.3838   10.8800   17.2916 C.ar    1  <0>1       -0.0458
     11 C9          9.9372   10.8931   16.0006 C.ar    1  <0>1       -0.0889
     12 C10        10.6592    9.7922   15.5077 C.ar    1  <0>1       -0.1724
     13 C11        11.1832    9.8373   14.2493 C.ar    1  <0>1        0.1242
     14 C12        11.0090   10.9716   13.4412 C.ar    1  <0>1        0.1405
     15 C13        10.3132   12.0545   13.8937 C.ar    1  <0>1       -0.1719
     16 C14         9.7599   12.0404   15.1855 C.ar    1  <0>1        0.1421
     17 N2          9.0734   13.0916   15.6465 N.ar    1  <0>1       -0.4713
     18 C15         8.5460   13.0966   16.8450 C.ar    1  <0>1        0.1572
     19 O2         11.5410   10.9918   12.1910 O.3     1  <0>1       -0.3012
     20 C16        11.3308   12.1734   11.4155 C.3     1  <0>1        0.0217
     21 O3         11.8810    8.7725   13.7725 O.3     1  <0>1       -0.3020
     22 C17        12.0233    7.6479   14.6427 C.3     1  <0>1        0.0226
     23 H1          8.2658   15.6788   20.6932 H       1  <0>1        0.0615
     24 H2          9.7052   14.8711   21.3594 H       1  <0>1        0.0602
     25 H3          9.8735   16.0191   20.0095 H       1  <0>1        0.1066
     26 H4          7.8631   13.9397   21.8604 H       1  <0>1        0.1435
     27 H5          6.4711   12.0237   22.5177 H       1  <0>1        0.1614
     28 H6          7.1018   10.1430   18.8721 H       1  <0>1        0.1639
     29 H7          9.5000   10.0223   17.9377 H       1  <0>1        0.1401
     30 H8         10.7980    8.9150   16.1223 H       1  <0>1        0.1454
     31 H9         10.1874   12.9202   13.2604 H       1  <0>1        0.1508
     32 H10         7.9962   13.9654   17.1755 H       1  <0>1        0.1574
     33 H11        10.2612   12.3344   11.2812 H       1  <0>1        0.0601
     34 H12        11.7650   13.0292   11.9324 H       1  <0>1        0.0599
     35 H13        11.8060   12.0579   10.4414 H       1  <0>1        0.1054
     36 H14        12.5995    6.8707   14.1406 H       1  <0>1        0.1050
     37 H15        12.5416    7.9548   15.5511 H       1  <0>1        0.0580
     38 H16        11.0375    7.2606   14.9000 H       1  <0>1        0.0585
@<TRIPOS>BOND
     1     1     2    1
     2     1    23    1
     3     1    24    1
     4     1    25    1
     5     2     3    1
     6     3     8   ar
     7     3     4   ar
     8     4     5   ar
     9     4    26    1
    10     5     6   ar
    11     5    27    1
    12     6     7   ar
    13     7     8   ar
    14     7    28    1
    15     8     9    1
    16     9    18   ar
    17     9    10   ar
    18    10    11   ar
    19    10    29    1
    20    11    16   ar
    21    11    12   ar
    22    12    13   ar
    23    12    30    1
    24    13    14   ar
    25    13    21    1
    26    14    15   ar
    27    14    19    1
    28    15    16   ar
    29    15    31    1
    30    16    17   ar
    31    17    18   ar
    32    18    32    1
    33    19    20    1
    34    20    33    1
    35    20    34    1
    36    20    35    1
    37    21    22    1
    38    22    36    1
    39    22    37    1
    40    22    38    1
@<TRIPOS>MOLECULE
ZINC03815789
 39 41 0 0 0
SMALL
USER_CHARGES

@<TRIPOS>ATOM
      1 C1         10.5285   11.1048   11.6373 C.3     1  <0>1        0.0046
      2 O1         10.9344   10.5320   12.8819 O.3     1  <0>1       -0.2660
      3 C2         10.4441   11.1020   14.0115 C.ar    1  <0>1        0.2659
      4 C3          9.5903   12.1981   13.9459 C.ar    1  <0>1       -0.2202
      5 C4          9.1076   12.7471   15.1167 C.ar    1  <0>1        0.1777
      6 C5         10.2618   11.2226   16.4079 C.ar    1  <0>1        0.1661
      7 C6         10.7893   10.6053   15.2777 C.ar    1  <0>1       -0.0638
      8 C7         11.7010    9.4429   15.4093 C.ar    1  <0>1       -0.1388
      9 C8         12.7921    9.5036   16.2651 C.ar    1  <0>1       -0.0223
     10 C9         13.6246    8.3756   16.3538 C.ar    1  <0>1       -0.0931
     11 C10        14.7471    8.3652   17.2001 C.ar    1  <0>1       -0.1786
     12 C11        15.5346    7.2534   17.2631 C.ar    1  <0>1        0.1365
     13 C12        15.2359    6.1196   16.4916 C.ar    1  <0>1        0.1592
     14 C13        14.1532    6.1018   15.6616 C.ar    1  <0>1       -0.1809
     15 C14        13.3209    7.2308   15.5735 C.ar    1  <0>1        0.1602
     16 N1         12.2542    7.2322   14.7666 N.ar    1  <0>1       -0.4591
     17 C15        11.4636    8.2718   14.6737 C.ar    1  <0>1        0.1605
     18 O2         16.0363    5.0244   16.5723 O.3     1  <0>1       -0.2949
     19 C16        15.6819    3.9009   15.7636 C.3     1  <0>1        0.0187
     20 O3         16.6198    7.2432   18.0817 O.3     1  <0>1       -0.2960
     21 C17        16.8705    8.4273   18.8415 C.3     1  <0>1        0.0212
     22 H1          9.4438   11.0471   11.5474 H       1  <0>1        0.0804
     23 H2         10.8412   12.1482   11.5983 H       1  <0>1        0.0790
     24 H3         10.9907   10.5560   10.8167 H       1  <0>1        0.1293
     25 H4          9.3050   12.6120   12.9900 H       1  <0>1        0.1919
     26 H5          8.4412   13.5957   15.0701 H       1  <0>1        0.2021
     27 H6         10.5183   10.8510   17.3890 H       1  <0>1        0.2021
     28 H7         12.9947   10.3914   16.8458 H       1  <0>1        0.1432
     29 H8         14.9845    9.2330   17.7976 H       1  <0>1        0.1492
     30 H9         13.9360    5.2220   15.0741 H       1  <0>1        0.1572
     31 H10        10.6109    8.2283   14.0123 H       1  <0>1        0.1596
     32 H11        14.6850    3.5558   16.0378 H       1  <0>1        0.0635
     33 H12        15.6894    4.1924   14.7134 H       1  <0>1        0.0634
     34 H13        16.4010    3.0974   15.9228 H       1  <0>1        0.1115
     35 H14        17.7632    8.2858   19.4508 H       1  <0>1        0.1103
     36 H15        17.0222    9.2680   18.1646 H       1  <0>1        0.0599
     37 H16        16.0174    8.6312   19.4886 H       1  <0>1        0.0598
     38 N2          9.4222   12.2904   16.3601 N.ar    1  <0>1       -0.5000
     39 H17         9.0476   12.7265   17.2107 H       1  <0>1        0.4806
@<TRIPOS>BOND
     1     1     2    1
     2     1    22    1
     3     1    23    1
     4     1    24    1
     5     2     3    1
     6     3     7   ar
     7     3     4   ar
     8     4     5   ar
     9     4    25    1
    10     5    26    1
    11     5    38   ar
    12     6     7   ar
    13     6    27    1
    14     6    38   ar
    15     7     8    1
    16     8    17   ar
    17     8     9   ar
    18     9    10   ar
    19     9    28    1
    20    10    15   ar
    21    10    11   ar
    22    11    12   ar
    23    11    29    1
    24    12    13   ar
    25    12    20    1
    26    13    14   ar
    27    13    18    1
    28    14    15   ar
    29    14    30    1
    30    15    16   ar
    31    16    17   ar
    32    17    31    1
    33    18    19    1
    34    19    32    1
    35    19    33    1
    36    19    34    1
    37    20    21    1
    38    21    35    1
    39    21    36    1
    40    21    37    1
    41    38    39    1
@<TRIPOS>MOLECULE
ZINC03815790
 44 46 0 0 0
SMALL
USER_CHARGES

@<TRIPOS>ATOM
      1 C1          9.1978   15.2790    6.5285 C.3     1  <0>1       -0.0487
      2 C2          6.8552   14.6824    6.3904 C.3     1  <0>1       -0.0424
      3 C3          8.2523   13.7114    8.1132 C.3     1  <0>1       -0.0025
      4 C4          9.2757   14.0537    9.1979 C.3     1  <0>1       -0.1527
      5 C5          9.5401   12.8165   10.0583 C.3     1  <0>1        0.0633
      6 O1         10.4959   13.1362   11.0714 O.3     1  <0>1       -0.3111
      7 C6         10.8443   12.1394   11.9280 C.ar    1  <0>1        0.1138
      8 C7         10.2720   10.8777   11.7907 C.ar    1  <0>1       -0.1825
      9 C8         10.6157    9.8586   12.6522 C.ar    1  <0>1       -0.0617
     10 C9         11.5378   10.0890   13.6635 C.ar    1  <0>1        0.0227
     11 C10        12.1197   11.3594   13.8087 C.ar    1  <0>1        0.0894
     12 C11        11.7630   12.3848   12.9287 C.ar    1  <0>1       -0.0965
     13 N1         12.9698   11.2882   14.8654 N.ar    1  <0>1       -0.4905
     14 C12        12.9485   10.0874   15.3661 C.ar    1  <0>1        0.2859
     15 N2         12.0824    9.3037   14.6650 N.ar    1  <0>1       -0.4433
     16 C13        11.8001    7.9530   14.9083 C.ar    1  <0>1        0.1167
     17 C14        10.4833    7.5249   15.0098 C.ar    1  <0>1       -0.1176
     18 C15        10.2081    6.1917   15.2435 C.ar    1  <0>1       -0.1002
     19 C16        11.2428    5.2858   15.3883 C.ar    1  <0>1       -0.1100
     20 C17        12.5554    5.7103   15.2938 C.ar    1  <0>1       -0.0978
     21 C18        12.8369    7.0410   15.0541 C.ar    1  <0>1       -0.1158
     22 H1          9.4912   14.4561    5.8767 H       1  <0>1        0.1243
     23 H2          8.9823   16.1610    5.9256 H       1  <0>1        0.1244
     24 H3         10.0100   15.5015    7.2206 H       1  <0>1        0.1236
     25 H4          5.9645   14.4713    6.9821 H       1  <0>1        0.1223
     26 H5          6.6894   15.5771    5.7904 H       1  <0>1        0.1243
     27 H6          7.0638   13.8379    5.7336 H       1  <0>1        0.1237
     28 H7          8.6418   12.9093    7.4864 H       1  <0>1        0.1349
     29 H8          7.3221   13.3882    8.5805 H       1  <0>1        0.1332
     30 H9          8.8863   14.8558    9.8248 H       1  <0>1        0.0994
     31 H10        10.2059   14.3768    8.7306 H       1  <0>1        0.0995
     32 H11         9.9296   12.0144    9.4314 H       1  <0>1        0.0720
     33 H12         8.6098   12.4933   10.5256 H       1  <0>1        0.0722
     34 H13         9.5540   10.6967   11.0045 H       1  <0>1        0.1340
     35 H14        10.1679    8.8821   12.5408 H       1  <0>1        0.1295
     36 H15        12.2046   13.3651   13.0309 H       1  <0>1        0.1414
     37 H16        13.5325    9.7597   16.2134 H       1  <0>1        0.2206
     38 H17         9.6748    8.2328   14.9016 H       1  <0>1        0.1280
     39 H18         9.1839    5.8572   15.3178 H       1  <0>1        0.1348
     40 H19        11.0252    4.2446   15.5751 H       1  <0>1        0.1338
     41 H20        13.3614    5.0004   15.4073 H       1  <0>1        0.1369
     42 H21        13.8624    7.3718   14.9797 H       1  <0>1        0.1328
     43 N3          7.9920   14.9209    7.3047 N.4     1  <0>1       -0.3970
     44 H22         7.7570   15.6980    7.9333 H       1  <0>1        0.4330
@<TRIPOS>BOND
     1     1    22    1
     2     1    23    1
     3     1    24    1
     4     1    43    1
     5     2    25    1
     6     2    26    1
     7     2    27    1
     8     2    43    1
     9     3     4    1
    10     3    28    1
    11     3    29    1
    12     3    43    1
    13     4     5    1
    14     4    30    1
    15     4    31    1
    16     5     6    1
    17     5    32    1
    18     5    33    1
    19     6     7    1
    20     7    12   ar
    21     7     8   ar
    22     8     9   ar
    23     8    34    1
    24     9    10   ar
    25     9    35    1
    26    10    15   ar
    27    10    11   ar
    28    11    12   ar
    29    11    13   ar
    30    12    36    1
    31    13    14   ar
    32    14    15   ar
    33    14    37    1
    34    15    16    1
    35    16    21   ar
    36    16    17   ar
    37    17    18   ar
    38    17    38    1
    39    18    19   ar
    40    18    39    1
    41    19    20   ar
    42    19    40    1
    43    20    21   ar
    44    20    41    1
    45    21    42    1
    46    43    44    1
@<TRIPOS>MOLECULE
ZINC03815790
 45 47 0 0 0
SMALL
USER_CHARGES

@<TRIPOS>ATOM
      1 C1         14.9501    2.8953   15.8746 C.3     1  <0>1       -0.0495
      2 C2         13.2705    1.4078   14.9643 C.3     1  <0>1       -0.0436
      3 C3         12.7592    3.7506   15.2995 C.3     1  <0>1       -0.0028
      4 C4         13.2804    5.1667   15.0462 C.3     1  <0>1       -0.1544
      5 C5         12.1910    6.1817   15.3978 C.3     1  <0>1        0.0573
      6 O1         12.6778    7.5042   15.1613 O.3     1  <0>1       -0.2989
      7 C6         11.8272    8.5316   15.4253 C.ar    1  <0>1        0.1687
      8 C7         10.5471    8.2645   15.9031 C.ar    1  <0>1       -0.1566
      9 C8          9.6747    9.2961   16.1743 C.ar    1  <0>1       -0.0353
     10 C9         10.0723   10.6101   15.9707 C.ar    1  <0>1        0.0441
     11 C10        11.3624   10.8879   15.4888 C.ar    1  <0>1        0.0949
     12 C11        12.2380    9.8330   15.2174 C.ar    1  <0>1       -0.1194
     13 C12        10.3537   12.7941   15.7704 C.ar    1  <0>1        0.3838
     14 N1          9.4562   11.8381   16.1399 N.ar    1  <0>1       -0.3685
     15 C13         8.1543   12.0571   16.6093 C.ar    1  <0>1        0.0622
     16 C14         7.0868   11.3717   16.0450 C.ar    1  <0>1       -0.0960
     17 C15         5.8054   11.5852   16.5141 C.ar    1  <0>1       -0.0957
     18 C16         5.5836   12.4895   17.5366 C.ar    1  <0>1       -0.0783
     19 C17         6.6440   13.1781   18.0964 C.ar    1  <0>1       -0.0939
     20 C18         7.9285   12.9644   17.6358 C.ar    1  <0>1       -0.0975
     21 H1         14.6200    2.7136   16.8974 H       1  <0>1        0.1255
     22 H2         15.7097    2.1626   15.6024 H       1  <0>1        0.1273
     23 H3         15.3702    3.8985   15.8013 H       1  <0>1        0.1219
     24 H4         12.4695    1.3296   14.2291 H       1  <0>1        0.1236
     25 H5         14.0657    0.7066   14.7113 H       1  <0>1        0.1273
     26 H6         12.8795    1.1722   15.9541 H       1  <0>1        0.1252
     27 H7         12.4898    3.6452   16.3504 H       1  <0>1        0.1361
     28 H8         11.8810    3.5705   14.6795 H       1  <0>1        0.1345
     29 H9         13.5498    5.2721   13.9954 H       1  <0>1        0.1028
     30 H10        14.1586    5.3468   15.6663 H       1  <0>1        0.1029
     31 H11        11.9216    6.0762   16.4488 H       1  <0>1        0.0819
     32 H12        11.3128    6.0016   14.7778 H       1  <0>1        0.0821
     33 H13        10.2358    7.2426   16.0618 H       1  <0>1        0.1578
     34 H14         8.6828    9.0825   16.5444 H       1  <0>1        0.1569
     35 H15        13.2322   10.0352   14.8470 H       1  <0>1        0.1630
     36 H16        10.1683   13.8578   15.7908 H       1  <0>1        0.2693
     37 H17         7.2588   10.6690   15.2431 H       1  <0>1        0.1362
     38 H18         4.9751   11.0488   16.0788 H       1  <0>1        0.1477
     39 H19         4.5802   12.6578   17.8989 H       1  <0>1        0.1465
     40 H20         6.4677   13.8837   18.8949 H       1  <0>1        0.1492
     41 H21         8.7563   13.5021   18.0740 H       1  <0>1        0.1397
     42 N2         13.8144    2.7819   14.9355 N.4     1  <0>1       -0.3970
     43 H22        14.1448    2.9900   13.9858 H       1  <0>1        0.4337
     44 N3         11.4683   12.2392   15.3896 N.ar    1  <0>1       -0.4994
     45 H23        12.3003   12.7452   15.0642 H       1  <0>1        0.4845
@<TRIPOS>BOND
     1     1    21    1
     2     1    22    1
     3     1    23    1
     4     1    42    1
     5     2    24    1
     6     2    25    1
     7     2    26    1
     8     2    42    1
     9     3     4    1
    10     3    27    1
    11     3    28    1
    12     3    42    1
    13     4     5    1
    14     4    29    1
    15     4    30    1
    16     5     6    1
    17     5    31    1
    18     5    32    1
    19     6     7    1
    20     7    12   ar
    21     7     8   ar
    22     8     9   ar
    23     8    33    1
    24     9    10   ar
    25     9    34    1
    26    10    14   ar
    27    10    11   ar
    28    11    12   ar
    29    11    44   ar
    30    12    35    1
    31    13    14   ar
    32    13    36    1
    33    13    44   ar
    34    14    15    1
    35    15    20   ar
    36    15    16   ar
    37    16    17   ar
    38    16    37    1
    39    17    18   ar
    40    17    38    1
    41    18    19   ar
    42    18    39    1
    43    19    20   ar
    44    19    40    1
    45    20    41    1
    46    42    43    1
    47    44    45    1
@<TRIPOS>MOLECULE
ZINC03815791
 47 49 0 0 0
SMALL
USER_CHARGES

@<TRIPOS>ATOM
      1 C1         16.3522    2.8415   16.0170 C.3     1  <0>1       -0.0427
      2 C2         16.9590    5.0841   15.3348 C.3     1  <0>1       -0.0475
      3 C3         14.6298    4.5042   15.6536 C.3     1  <0>1       -0.0052
      4 C4         14.2254    5.9418   15.9861 C.3     1  <0>1       -0.1478
      5 C5         12.7892    6.1884   15.5196 C.3     1  <0>1       -0.1186
      6 C6         12.3848    7.6260   15.8521 C.3     1  <0>1        0.0595
      7 O1         11.0434    7.8564   15.4164 O.3     1  <0>1       -0.3120
      8 C7         10.5264    9.0942   15.6381 C.ar    1  <0>1        0.1172
      9 C8         11.3018   10.0657   16.2651 C.ar    1  <0>1       -0.1821
     10 C9         10.7901   11.3241   16.4964 C.ar    1  <0>1       -0.0633
     11 C10         9.4943   11.6273   16.1027 C.ar    1  <0>1        0.0209
     12 C11         8.7055   10.6524   15.4694 C.ar    1  <0>1        0.0896
     13 C12         9.2357    9.3798   15.2404 C.ar    1  <0>1       -0.0996
     14 N1          7.5034   11.2258   15.2034 N.ar    1  <0>1       -0.4905
     15 C13         7.5025   12.4579   15.6215 C.ar    1  <0>1        0.2841
     16 N2          8.7049   12.7614   16.1854 N.ar    1  <0>1       -0.4443
     17 C14         9.0757   13.9934   16.7401 C.ar    1  <0>1        0.1186
     18 C15         9.6359   14.0445   18.0095 C.ar    1  <0>1       -0.1179
     19 C16        10.0060   15.2599   18.5510 C.ar    1  <0>1       -0.1004
     20 C17         9.8082   16.4264   17.8352 C.ar    1  <0>1       -0.1111
     21 C18         9.2448   16.3794   16.5732 C.ar    1  <0>1       -0.0980
     22 C19         8.8783   15.1664   16.0238 C.ar    1  <0>1       -0.1164
     23 H1         16.2576    2.5056   14.9844 H       1  <0>1        0.1234
     24 H2         17.3780    2.6943   16.3545 H       1  <0>1        0.1230
     25 H3         15.6756    2.2668   16.6495 H       1  <0>1        0.1221
     26 H4         16.7235    6.1396   15.4711 H       1  <0>1        0.1217
     27 H5         17.9720    4.8893   15.6867 H       1  <0>1        0.1230
     28 H6         16.8863    4.8293   14.2774 H       1  <0>1        0.1240
     29 H7         13.9588    3.8113   16.1612 H       1  <0>1        0.1320
     30 H8         14.5659    4.3486   14.5766 H       1  <0>1        0.1336
     31 H9         14.8964    6.6346   15.4785 H       1  <0>1        0.0905
     32 H10        14.2893    6.0973   17.0631 H       1  <0>1        0.0904
     33 H11        12.1182    5.4955   16.0271 H       1  <0>1        0.0872
     34 H12        12.7254    6.0329   14.4426 H       1  <0>1        0.0869
     35 H13        13.0558    8.3189   15.3445 H       1  <0>1        0.0647
     36 H14        12.4487    7.7816   16.9291 H       1  <0>1        0.0650
     37 H15        12.3103    9.8316   16.5725 H       1  <0>1        0.1336
     38 H16        11.3965   12.0733   16.9837 H       1  <0>1        0.1283
     39 H17         8.6382    8.6230   14.7539 H       1  <0>1        0.1411
     40 H18         6.6703   13.1407   15.5337 H       1  <0>1        0.2199
     41 H19         9.7861   13.1342   18.5710 H       1  <0>1        0.1280
     42 H20        10.4462   15.2998   19.5365 H       1  <0>1        0.1344
     43 H21        10.0946   17.3760   18.2625 H       1  <0>1        0.1333
     44 H22         9.0916   17.2921   16.0165 H       1  <0>1        0.1365
     45 H23         8.4390   15.1303   15.0378 H       1  <0>1        0.1326
     46 N3         16.0105    4.2752   16.1291 N.4     1  <0>1       -0.3988
     47 H24        16.0751    4.5574   17.1141 H       1  <0>1        0.4312
@<TRIPOS>BOND
     1     1    23    1
     2     1    24    1
     3     1    25    1
     4     1    46    1
     5     2    26    1
     6     2    27    1
     7     2    28    1
     8     2    46    1
     9     3     4    1
    10     3    29    1
    11     3    30    1
    12     3    46    1
    13     4     5    1
    14     4    31    1
    15     4    32    1
    16     5     6    1
    17     5    33    1
    18     5    34    1
    19     6     7    1
    20     6    35    1
    21     6    36    1
    22     7     8    1
    23     8    13   ar
    24     8     9   ar
    25     9    10   ar
    26     9    37    1
    27    10    11   ar
    28    10    38    1
    29    11    16   ar
    30    11    12   ar
    31    12    13   ar
    32    12    14   ar
    33    13    39    1
    34    14    15   ar
    35    15    16   ar
    36    15    40    1
    37    16    17    1
    38    17    22   ar
    39    17    18   ar
    40    18    19   ar
    41    18    41    1
    42    19    20   ar
    43    19    42    1
    44    20    21   ar
    45    20    43    1
    46    21    22   ar
    47    21    44    1
    48    22    45    1
    49    46    47    1
@<TRIPOS>MOLECULE
ZINC03815791
 48 50 0 0 0
SMALL
USER_CHARGES

@<TRIPOS>ATOM
      1 C1         16.3219    2.9349   15.9590 C.3     1  <0>1       -0.0437
      2 C2         16.9322    5.2119   15.4066 C.3     1  <0>1       -0.0479
      3 C3         14.5978    4.5880   15.5617 C.3     1  <0>1       -0.0054
      4 C4         14.1516    6.0048   15.9280 C.3     1  <0>1       -0.1488
      5 C5         12.7418    6.2515   15.3870 C.3     1  <0>1       -0.1198
      6 C6         12.2956    7.6683   15.7533 C.3     1  <0>1        0.0531
      7 O1         10.9789    7.8987   15.2480 O.3     1  <0>1       -0.2990
      8 C7         10.4300    9.1191   15.4889 C.ar    1  <0>1        0.1718
      9 C8         11.1515   10.0739   16.2003 C.ar    1  <0>1       -0.1566
     10 C9         10.6071   11.3146   16.4519 C.ar    1  <0>1       -0.0367
     11 C10         9.3321   11.6164   15.9942 C.ar    1  <0>1        0.0415
     12 C11         8.5977   10.6584   15.2756 C.ar    1  <0>1        0.0952
     13 C12         9.1607    9.4037   15.0268 C.ar    1  <0>1       -0.1226
     14 C13         7.3593   12.4397   15.4293 C.ar    1  <0>1        0.3817
     15 N1          8.5213   12.7354   16.0759 N.ar    1  <0>1       -0.3689
     16 C14         8.8390   13.9481   16.7017 C.ar    1  <0>1        0.0640
     17 C15         9.3223   13.9536   18.0034 C.ar    1  <0>1       -0.0962
     18 C16         9.6404   15.1502   18.6153 C.ar    1  <0>1       -0.0959
     19 C17         9.4667   16.3428   17.9373 C.ar    1  <0>1       -0.0792
     20 C18         8.9798   16.3410   16.6430 C.ar    1  <0>1       -0.0942
     21 C19         8.6657   15.1472   16.0235 C.ar    1  <0>1       -0.0979
     22 H1         16.2939    2.6412   14.9098 H       1  <0>1        0.1246
     23 H2         17.3282    2.7875   16.3509 H       1  <0>1        0.1253
     24 H3         15.6183    2.3252   16.5260 H       1  <0>1        0.1230
     25 H4         16.6724    6.2575   15.5717 H       1  <0>1        0.1202
     26 H5         17.9256    5.0163   15.8101 H       1  <0>1        0.1253
     27 H6         16.9263    5.0006   14.3372 H       1  <0>1        0.1248
     28 H7         13.9091    3.8655   15.9996 H       1  <0>1        0.1326
     29 H8         14.6002    4.4767   14.4773 H       1  <0>1        0.1343
     30 H9         14.8403    6.7273   15.4901 H       1  <0>1        0.0922
     31 H10        14.1493    6.1161   17.0123 H       1  <0>1        0.0920
     32 H11        12.0531    5.5290   15.8248 H       1  <0>1        0.0908
     33 H12        12.7442    6.1402   14.3027 H       1  <0>1        0.0905
     34 H13        12.9844    8.3908   15.3154 H       1  <0>1        0.0748
     35 H14        12.2932    7.7796   16.8376 H       1  <0>1        0.0751
     36 H15        12.1436    9.8407   16.5576 H       1  <0>1        0.1572
     37 H16        11.1716   12.0508   17.0048 H       1  <0>1        0.1557
     38 H17         8.6051    8.6599   14.4750 H       1  <0>1        0.1627
     39 H18         6.5230   13.1142   15.3200 H       1  <0>1        0.2686
     40 H19         9.4535   13.0227   18.5351 H       1  <0>1        0.1363
     41 H20        10.0209   15.1548   19.6262 H       1  <0>1        0.1473
     42 H21         9.7122   17.2775   18.4194 H       1  <0>1        0.1460
     43 H22         8.8452   17.2740   16.1160 H       1  <0>1        0.1489
     44 H23         8.2861   15.1464   15.0124 H       1  <0>1        0.1396
     45 N2         15.9515    4.3579   16.1091 N.4     1  <0>1       -0.3987
     46 H24        15.9532    4.5995   17.1069 H       1  <0>1        0.4314
     47 N3          7.4033   11.2255   14.9612 N.ar    1  <0>1       -0.4992
     48 H25         6.6507   10.7665   14.4348 H       1  <0>1        0.4840
@<TRIPOS>BOND
     1     1    22    1
     2     1    23    1
     3     1    24    1
     4     1    45    1
     5     2    25    1
     6     2    26    1
     7     2    27    1
     8     2    45    1
     9     3     4    1
    10     3    28    1
    11     3    29    1
    12     3    45    1
    13     4     5    1
    14     4    30    1
    15     4    31    1
    16     5     6    1
    17     5    32    1
    18     5    33    1
    19     6     7    1
    20     6    34    1
    21     6    35    1
    22     7     8    1
    23     8    13   ar
    24     8     9   ar
    25     9    10   ar
    26     9    36    1
    27    10    11   ar
    28    10    37    1
    29    11    15   ar
    30    11    12   ar
    31    12    13   ar
    32    12    47   ar
    33    13    38    1
    34    14    15   ar
    35    14    39    1
    36    14    47   ar
    37    15    16    1
    38    16    21   ar
    39    16    17   ar
    40    17    18   ar
    41    17    40    1
    42    18    19   ar
    43    18    41    1
    44    19    20   ar
    45    19    42    1
    46    20    21   ar
    47    20    43    1
    48    21    44    1
    49    45    46    1
    50    47    48    1
@<TRIPOS>MOLECULE
ZINC03815792
 32 34 0 0 0
SMALL
USER_CHARGES

@<TRIPOS>ATOM
      1 C1         14.3077   15.5419   18.6508 C.3     1  <0>1       -0.1535
      2 C2         14.0815   14.0969   18.2018 C.3     1  <0>1        0.0544
      3 O1         13.2891   14.0860   17.0127 O.3     1  <0>1       -0.3135
      4 C3         12.9945   12.8709   16.4784 C.ar    1  <0>1        0.1258
      5 C4         13.4626   11.7128   17.0932 C.ar    1  <0>1       -0.1787
      6 C5         13.1714   10.4750   16.5623 C.ar    1  <0>1       -0.0664
      7 C6         12.4069   10.3796   15.4080 C.ar    1  <0>1        0.0169
      8 C7         11.9304   11.5435   14.7819 C.ar    1  <0>1        0.0882
      9 C8         12.2325   12.7931   15.3299 C.ar    1  <0>1       -0.1066
     10 N1         11.2238   11.1471   13.6920 N.ar    1  <0>1       -0.4903
     11 C9         11.2348    9.8485   13.6099 C.ar    1  <0>1        0.2768
     12 N2         11.9501    9.3208   14.6423 N.ar    1  <0>1       -0.4468
     13 C10        12.1760    7.9598   14.8869 C.ar    1  <0>1        0.1245
     14 C11        13.4652    7.4994   15.1193 C.ar    1  <0>1       -0.1181
     15 C12        13.6838    6.1583   15.3667 C.ar    1  <0>1       -0.1002
     16 C13        12.6221    5.2723   15.3704 C.ar    1  <0>1       -0.1146
     17 C14        11.3378    5.7269   15.1333 C.ar    1  <0>1       -0.0995
     18 C15        11.1119    7.0679   14.8918 C.ar    1  <0>1       -0.1184
     19 H1         14.9121   15.5501   19.5579 H       1  <0>1        0.0790
     20 H2         14.8258   16.0900   17.8639 H       1  <0>1        0.0672
     21 H3         13.3462   16.0150   18.8506 H       1  <0>1        0.0672
     22 H4         13.5634   13.5488   18.9888 H       1  <0>1        0.0623
     23 H5         15.0430   13.6237   18.0021 H       1  <0>1        0.0623
     24 H6         14.0579   11.7851   17.9914 H       1  <0>1        0.1376
     25 H7         13.5377    9.5803   17.0438 H       1  <0>1        0.1268
     26 H8         11.8710   13.6943   14.8570 H       1  <0>1        0.1402
     27 H9         10.7479    9.2731   12.8365 H       1  <0>1        0.2171
     28 H10        14.2954    8.1901   15.1113 H       1  <0>1        0.1292
     29 H11        14.6857    5.8004   15.5527 H       1  <0>1        0.1335
     30 H12        12.7962    4.2234   15.5594 H       1  <0>1        0.1314
     31 H13        10.5105    5.0326   15.1372 H       1  <0>1        0.1345
     32 H14        10.1085    7.4223   14.7073 H       1  <0>1        0.1318
@<TRIPOS>BOND
     1     1     2    1
     2     1    19    1
     3     1    20    1
     4     1    21    1
     5     2     3    1
     6     2    22    1
     7     2    23    1
     8     3     4    1
     9     4     9   ar
    10     4     5   ar
    11     5     6   ar
    12     5    24    1
    13     6     7   ar
    14     6    25    1
    15     7    12   ar
    16     7     8   ar
    17     8     9   ar
    18     8    10   ar
    19     9    26    1
    20    10    11   ar
    21    11    12   ar
    22    11    27    1
    23    12    13    1
    24    13    18   ar
    25    13    14   ar
    26    14    15   ar
    27    14    28    1
    28    15    16   ar
    29    15    29    1
    30    16    17   ar
    31    16    30    1
    32    17    18   ar
    33    17    31    1
    34    18    32    1
@<TRIPOS>MOLECULE
ZINC03815792
 33 35 0 0 0
SMALL
USER_CHARGES

@<TRIPOS>ATOM
      1 C1         14.3077   15.5419   18.6508 C.3     1  <0>1       -0.1574
      2 C2         14.0815   14.0969   18.2018 C.3     1  <0>1        0.0484
      3 O1         13.2891   14.0860   17.0127 O.3     1  <0>1       -0.2991
      4 C3         12.9945   12.8709   16.4784 C.ar    1  <0>1        0.1800
      5 C4         13.4626   11.7128   17.0932 C.ar    1  <0>1       -0.1537
      6 C5         13.1714   10.4750   16.5623 C.ar    1  <0>1       -0.0393
      7 C6         12.4069   10.3796   15.4080 C.ar    1  <0>1        0.0355
      8 C7         11.9304   11.5435   14.7819 C.ar    1  <0>1        0.0946
      9 C8         12.2325   12.7931   15.3299 C.ar    1  <0>1       -0.1301
     10 C9         11.2348    9.8485   13.6099 C.ar    1  <0>1        0.3737
     11 N1         11.9501    9.3208   14.6423 N.ar    1  <0>1       -0.3696
     12 C10        12.1760    7.9598   14.8869 C.ar    1  <0>1        0.0690
     13 C11        13.4652    7.4994   15.1193 C.ar    1  <0>1       -0.0957
     14 C12        13.6838    6.1583   15.3667 C.ar    1  <0>1       -0.0960
     15 C13        12.6221    5.2723   15.3704 C.ar    1  <0>1       -0.0824
     16 C14        11.3378    5.7269   15.1333 C.ar    1  <0>1       -0.0959
     17 C15        11.1119    7.0679   14.8918 C.ar    1  <0>1       -0.0994
     18 H1         14.9121   15.5501   19.5579 H       1  <0>1        0.0884
     19 H2         14.8258   16.0900   17.8639 H       1  <0>1        0.0715
     20 H3         13.3462   16.0150   18.8506 H       1  <0>1        0.0715
     21 H4         13.5634   13.5488   18.9888 H       1  <0>1        0.0727
     22 H5         15.0430   13.6237   18.0021 H       1  <0>1        0.0727
     23 H6         14.0579   11.7851   17.9914 H       1  <0>1        0.1609
     24 H7         13.5377    9.5803   17.0438 H       1  <0>1        0.1540
     25 H8         11.8710   13.6943   14.8570 H       1  <0>1        0.1616
     26 H9         10.7479    9.2731   12.8365 H       1  <0>1        0.2659
     27 H10        14.2954    8.1901   15.1113 H       1  <0>1        0.1375
     28 H11        14.6857    5.8004   15.5527 H       1  <0>1        0.1466
     29 H12        12.7962    4.2234   15.5594 H       1  <0>1        0.1443
     30 H13        10.5105    5.0326   15.1372 H       1  <0>1        0.1470
     31 H14        10.1085    7.4223   14.7073 H       1  <0>1        0.1388
     32 N2         11.2230   11.1480   13.6909 N.ar    1  <0>1       -0.4981
     33 H15        10.7512   11.7778   13.0314 H       1  <0>1        0.4820
@<TRIPOS>BOND
     1     1     2    1
     2     1    18    1
     3     1    19    1
     4     1    20    1
     5     2     3    1
     6     2    21    1
     7     2    22    1
     8     3     4    1
     9     4     9   ar
    10     4     5   ar
    11     5     6   ar
    12     5    23    1
    13     6     7   ar
    14     6    24    1
    15     7    11   ar
    16     7     8   ar
    17     8     9   ar
    18     8    32   ar
    19     9    25    1
    20    10    11   ar
    21    10    26    1
    22    10    32   ar
    23    11    12    1
    24    12    17   ar
    25    12    13   ar
    26    13    14   ar
    27    13    27    1
    28    14    15   ar
    29    14    28    1
    30    15    16   ar
    31    15    29    1
    32    16    17   ar
    33    16    30    1
    34    17    31    1
    35    32    33    1
@<TRIPOS>MOLECULE
ZINC03815793
 35 37 0 0 0
SMALL
USER_CHARGES

@<TRIPOS>ATOM
      1 C1         16.4305    2.0578   16.0791 C.3     1  <0>1       -0.1507
      2 C2         14.9092    2.0337   15.9176 C.3     1  <0>1       -0.1244
      3 C3         14.3950    3.4606   15.7165 C.3     1  <0>1        0.0583
      4 O1         12.9742    3.4381   15.5656 O.3     1  <0>1       -0.3131
      5 C4         12.3544    4.6336   15.3768 C.ar    1  <0>1        0.1262
      6 C5         13.1067    5.8044   15.3389 C.ar    1  <0>1       -0.1787
      7 C6         12.4915    7.0227   15.1487 C.ar    1  <0>1       -0.0663
      8 C7         11.1137    7.0854   14.9937 C.ar    1  <0>1        0.0170
      9 C8         10.3476    5.9083   15.0308 C.ar    1  <0>1        0.0883
     10 C9         10.9832    4.6788   15.2243 C.ar    1  <0>1       -0.1066
     11 N1          9.0513    6.2727   14.8539 N.ar    1  <0>1       -0.4903
     12 C10         8.9732    7.5640   14.7142 C.ar    1  <0>1        0.2768
     13 N2         10.2151    8.1187   14.7918 N.ar    1  <0>1       -0.4467
     14 C11        10.5256    9.4806   14.6817 C.ar    1  <0>1        0.1245
     15 C12        11.3241   10.0917   15.6391 C.ar    1  <0>1       -0.1181
     16 C13        11.6334   11.4329   15.5244 C.ar    1  <0>1       -0.1002
     17 C14        11.1390   12.1697   14.4639 C.ar    1  <0>1       -0.1146
     18 C15        10.3384   11.5653   13.5120 C.ar    1  <0>1       -0.0995
     19 C16        10.0306   10.2231   13.6179 C.ar    1  <0>1       -0.1183
     20 H1         16.7968    1.0413   16.2223 H       1  <0>1        0.0655
     21 H2         16.8841    2.4849   15.1848 H       1  <0>1        0.0577
     22 H3         16.6943    2.6646   16.9454 H       1  <0>1        0.0577
     23 H4         14.4556    1.6067   16.8119 H       1  <0>1        0.0744
     24 H5         14.6455    1.4270   15.0513 H       1  <0>1        0.0744
     25 H6         14.8487    3.8877   14.8221 H       1  <0>1        0.0624
     26 H7         14.6588    4.0674   16.5828 H       1  <0>1        0.0624
     27 H8         14.1789    5.7577   15.4597 H       1  <0>1        0.1374
     28 H9         13.0805    7.9275   15.1207 H       1  <0>1        0.1268
     29 H10        10.4039    3.7678   15.2540 H       1  <0>1        0.1402
     30 H11         8.0578    8.1155   14.5589 H       1  <0>1        0.2171
     31 H12        11.7065    9.5178   16.4703 H       1  <0>1        0.1291
     32 H13        12.2585   11.9077   16.2663 H       1  <0>1        0.1335
     33 H14        11.3789   13.2193   14.3786 H       1  <0>1        0.1315
     34 H15         9.9537   12.1434   12.6848 H       1  <0>1        0.1345
     35 H16         9.4058    9.7514   12.8738 H       1  <0>1        0.1318
@<TRIPOS>BOND
     1     1     2    1
     2     1    20    1
     3     1    21    1
     4     1    22    1
     5     2     3    1
     6     2    23    1
     7     2    24    1
     8     3     4    1
     9     3    25    1
    10     3    26    1
    11     4     5    1
    12     5    10   ar
    13     5     6   ar
    14     6     7   ar
    15     6    27    1
    16     7     8   ar
    17     7    28    1
    18     8    13   ar
    19     8     9   ar
    20     9    10   ar
    21     9    11   ar
    22    10    29    1
    23    11    12   ar
    24    12    13   ar
    25    12    30    1
    26    13    14    1
    27    14    19   ar
    28    14    15   ar
    29    15    16   ar
    30    15    31    1
    31    16    17   ar
    32    16    32    1
    33    17    18   ar
    34    17    33    1
    35    18    19   ar
    36    18    34    1
    37    19    35    1
@<TRIPOS>MOLECULE
ZINC03815793
 36 38 0 0 0
SMALL
USER_CHARGES

@<TRIPOS>ATOM
      1 C1         12.7592    3.7506   15.2995 C.3     1  <0>1       -0.1534
      2 C2         13.2804    5.1667   15.0462 C.3     1  <0>1       -0.1251
      3 C3         12.1910    6.1817   15.3978 C.3     1  <0>1        0.0513
      4 O1         12.6778    7.5042   15.1613 O.3     1  <0>1       -0.2985
      5 C4         11.8272    8.5316   15.4253 C.ar    1  <0>1        0.1803
      6 C5         10.5471    8.2645   15.9031 C.ar    1  <0>1       -0.1538
      7 C6          9.6747    9.2961   16.1743 C.ar    1  <0>1       -0.0392
      8 C7         10.0723   10.6101   15.9707 C.ar    1  <0>1        0.0356
      9 C8         11.3624   10.8879   15.4888 C.ar    1  <0>1        0.0946
     10 C9         12.2380    9.8330   15.2174 C.ar    1  <0>1       -0.1300
     11 C10        10.3537   12.7941   15.7704 C.ar    1  <0>1        0.3737
     12 N1          9.4562   11.8381   16.1399 N.ar    1  <0>1       -0.3695
     13 C11         8.1543   12.0571   16.6093 C.ar    1  <0>1        0.0690
     14 C12         7.0868   11.3717   16.0450 C.ar    1  <0>1       -0.0957
     15 C13         5.8054   11.5852   16.5141 C.ar    1  <0>1       -0.0960
     16 C14         5.5836   12.4895   17.5366 C.ar    1  <0>1       -0.0824
     17 C15         6.6440   13.1781   18.0964 C.ar    1  <0>1       -0.0959
     18 C16         7.9285   12.9644   17.6358 C.ar    1  <0>1       -0.0994
     19 H1         13.5353    3.0276   15.0491 H       1  <0>1        0.0714
     20 H2         12.4898    3.6452   16.3504 H       1  <0>1        0.0601
     21 H3         11.8810    3.5705   14.6795 H       1  <0>1        0.0601
     22 H4         13.5498    5.2721   13.9954 H       1  <0>1        0.0783
     23 H5         14.1586    5.3468   15.6663 H       1  <0>1        0.0782
     24 H6         11.9216    6.0762   16.4488 H       1  <0>1        0.0729
     25 H7         11.3128    6.0016   14.7778 H       1  <0>1        0.0729
     26 H8         10.2358    7.2426   16.0618 H       1  <0>1        0.1607
     27 H9          8.6828    9.0825   16.5444 H       1  <0>1        0.1540
     28 H10        13.2322   10.0352   14.8470 H       1  <0>1        0.1617
     29 H11        10.1683   13.8578   15.7908 H       1  <0>1        0.2659
     30 H12         7.2588   10.6690   15.2431 H       1  <0>1        0.1375
     31 H13         4.9751   11.0488   16.0788 H       1  <0>1        0.1466
     32 H14         4.5802   12.6578   17.8989 H       1  <0>1        0.1443
     33 H15         6.4677   13.8837   18.8949 H       1  <0>1        0.1470
     34 H16         8.7563   13.5021   18.0740 H       1  <0>1        0.1388
     35 N2         11.4683   12.2392   15.3896 N.ar    1  <0>1       -0.4981
     36 H17        12.3003   12.7452   15.0642 H       1  <0>1        0.4820
@<TRIPOS>BOND
     1     1     2    1
     2     1    19    1
     3     1    20    1
     4     1    21    1
     5     2     3    1
     6     2    22    1
     7     2    23    1
     8     3     4    1
     9     3    24    1
    10     3    25    1
    11     4     5    1
    12     5    10   ar
    13     5     6   ar
    14     6     7   ar
    15     6    26    1
    16     7     8   ar
    17     7    27    1
    18     8    12   ar
    19     8     9   ar
    20     9    10   ar
    21     9    35   ar
    22    10    28    1
    23    11    12   ar
    24    11    29    1
    25    11    35   ar
    26    12    13    1
    27    13    18   ar
    28    13    14   ar
    29    14    15   ar
    30    14    30    1
    31    15    16   ar
    32    15    31    1
    33    16    17   ar
    34    16    32    1
    35    17    18   ar
    36    17    33    1
    37    18    34    1
    38    35    36    1
@<TRIPOS>MOLECULE
ZINC03815794
 31 33 0 0 0
SMALL
USER_CHARGES

@<TRIPOS>ATOM
      1 C1         12.7293    9.3403   12.2699 C.3     1  <0>1        0.0273
      2 O1         12.0296   10.5728   12.0869 O.3     1  <0>1       -0.3155
      3 C2         11.3069   11.0349   13.1419 C.ar    1  <0>1        0.1199
      4 C3         11.2756   10.3095   14.3299 C.ar    1  <0>1       -0.1802
      5 C4         10.5466   10.7657   15.4065 C.ar    1  <0>1       -0.0662
      6 C5          9.8391   11.9557   15.3089 C.ar    1  <0>1        0.0175
      7 C6          9.8658   12.6935   14.1135 C.ar    1  <0>1        0.0865
      8 C7         10.6085   12.2202   13.0284 C.ar    1  <0>1       -0.1067
      9 N1          9.0941   13.7938   14.3089 N.ar    1  <0>1       -0.4945
     10 C8          8.6076   13.7799   15.5161 C.ar    1  <0>1        0.2740
     11 N2          9.0337   12.6692   16.1791 N.ar    1  <0>1       -0.4358
     12 C9          8.7156   12.3147   17.4989 C.ar    1  <0>1        0.0587
     13 C10         8.2459   11.0390   17.7807 C.ar    1  <0>1       -0.0638
     14 C11         7.9374   10.6883   19.0799 C.ar    1  <0>1       -0.1814
     15 C12         8.0865   11.6154   20.1034 C.ar    1  <0>1        0.2242
     16 C13         8.5515   12.8932   19.8203 C.ar    1  <0>1       -0.1809
     17 C14         8.8652   13.2415   18.5217 C.ar    1  <0>1       -0.0640
     18 N3          7.7682   11.2624   21.4186 N.pl3   1  <0>1       -0.8733
     19 H1         12.0170    8.5497   12.5058 H       1  <0>1        0.0554
     20 H2         13.2638    9.0866   11.3546 H       1  <0>1        0.1010
     21 H3         13.4407    9.4446   13.0891 H       1  <0>1        0.0554
     22 H4         11.8254    9.3832   14.4077 H       1  <0>1        0.1369
     23 H5         10.5264   10.1985   16.3253 H       1  <0>1        0.1262
     24 H6         10.6362   12.7796   12.1050 H       1  <0>1        0.1390
     25 H7          7.9573   14.5363   15.9299 H       1  <0>1        0.2153
     26 H8          8.1257   10.3196   16.9842 H       1  <0>1        0.1285
     27 H9          7.5762    9.6945   19.2998 H       1  <0>1        0.1305
     28 H10         8.6672   13.6144   20.6159 H       1  <0>1        0.1315
     29 H11         9.2268   14.2351   18.3015 H       1  <0>1        0.1312
     30 H12         7.8721   11.9100   22.1333 H       1  <0>1        0.4016
     31 H13         7.4435   10.3700   21.6163 H       1  <0>1        0.4015
@<TRIPOS>BOND
     1     1     2    1
     2     1    19    1
     3     1    20    1
     4     1    21    1
     5     2     3    1
     6     3     8   ar
     7     3     4   ar
     8     4     5   ar
     9     4    22    1
    10     5     6   ar
    11     5    23    1
    12     6    11   ar
    13     6     7   ar
    14     7     8   ar
    15     7     9   ar
    16     8    24    1
    17     9    10   ar
    18    10    11   ar
    19    10    25    1
    20    11    12    1
    21    12    17   ar
    22    12    13   ar
    23    13    14   ar
    24    13    26    1
    25    14    15   ar
    26    14    27    1
    27    15    16   ar
    28    15    18    1
    29    16    17   ar
    30    16    28    1
    31    17    29    1
    32    18    30    1
    33    18    31    1
@<TRIPOS>MOLECULE
ZINC03815794
 32 34 0 0 0
SMALL
USER_CHARGES

@<TRIPOS>ATOM
      1 C1         12.7293    9.3403   12.2699 C.3     1  <0>1        0.0180
      2 O1         12.0296   10.5728   12.0869 O.3     1  <0>1       -0.3002
      3 C2         11.3069   11.0349   13.1419 C.ar    1  <0>1        0.1747
      4 C3         11.2756   10.3095   14.3299 C.ar    1  <0>1       -0.1559
      5 C4         10.5466   10.7657   15.4065 C.ar    1  <0>1       -0.0384
      6 C5          9.8391   11.9557   15.3089 C.ar    1  <0>1        0.0355
      7 C6          9.8658   12.6935   14.1135 C.ar    1  <0>1        0.0947
      8 C7         10.6085   12.2202   13.0284 C.ar    1  <0>1       -0.1313
      9 C8          8.6076   13.7799   15.5161 C.ar    1  <0>1        0.3656
     10 N1          9.0337   12.6692   16.1791 N.ar    1  <0>1       -0.3539
     11 C9          8.7156   12.3147   17.4989 C.ar    1  <0>1       -0.0051
     12 C10         8.2459   11.0390   17.7807 C.ar    1  <0>1       -0.0389
     13 C11         7.9374   10.6883   19.0799 C.ar    1  <0>1       -0.1818
     14 C12         8.0865   11.6154   20.1034 C.ar    1  <0>1        0.2564
     15 C13         8.5515   12.8932   19.8203 C.ar    1  <0>1       -0.1817
     16 C14         8.8652   13.2415   18.5217 C.ar    1  <0>1       -0.0423
     17 N2          7.7682   11.2624   21.4186 N.pl3   1  <0>1       -0.8575
     18 H1         12.0170    8.5497   12.5058 H       1  <0>1        0.0664
     19 H2         13.2638    9.0866   11.3546 H       1  <0>1        0.1158
     20 H3         13.4407    9.4446   13.0891 H       1  <0>1        0.0664
     21 H4         11.8254    9.3832   14.4077 H       1  <0>1        0.1602
     22 H5         10.5264   10.1985   16.3253 H       1  <0>1        0.1535
     23 H6         10.6362   12.7796   12.1050 H       1  <0>1        0.1603
     24 H7          7.9573   14.5363   15.9299 H       1  <0>1        0.2638
     25 H8          8.1257   10.3196   16.9842 H       1  <0>1        0.1360
     26 H9          7.5762    9.6945   19.2998 H       1  <0>1        0.1425
     27 H10         8.6672   13.6144   20.6159 H       1  <0>1        0.1429
     28 H11         9.2268   14.2351   18.3015 H       1  <0>1        0.1374
     29 H12         7.8721   11.9100   22.1333 H       1  <0>1        0.4093
     30 H13         7.4435   10.3700   21.6163 H       1  <0>1        0.4092
     31 N3          9.0939   13.7948   14.3079 N.ar    1  <0>1       -0.5018
     32 H14         8.9205   14.5269   13.6092 H       1  <0>1        0.4803
@<TRIPOS>BOND
     1     1     2    1
     2     1    18    1
     3     1    19    1
     4     1    20    1
     5     2     3    1
     6     3     8   ar
     7     3     4   ar
     8     4     5   ar
     9     4    21    1
    10     5     6   ar
    11     5    22    1
    12     6    10   ar
    13     6     7   ar
    14     7     8   ar
    15     7    31   ar
    16     8    23    1
    17     9    10   ar
    18     9    24    1
    19     9    31   ar
    20    10    11    1
    21    11    16   ar
    22    11    12   ar
    23    12    13   ar
    24    12    25    1
    25    13    14   ar
    26    13    26    1
    27    14    15   ar
    28    14    17    1
    29    15    16   ar
    30    15    27    1
    31    16    28    1
    32    17    29    1
    33    17    30    1
    34    31    32    1
@<TRIPOS>MOLECULE
ZINC03815796
 33 35 0 0 0
SMALL
USER_CHARGES

@<TRIPOS>ATOM
      1 C1         12.1815   15.8864   19.6445 C.2     1  <0>1       -0.1683
      2 C2         12.3602   15.5623   18.3879 C.2     1  <0>1       -0.1592
      3 C3         12.5608   14.1190   18.0032 C.3     1  <0>1        0.0872
      4 O1         11.7601   13.8152   16.8593 O.3     1  <0>1       -0.3086
      5 C4         11.8253   12.5445   16.3800 C.ar    1  <0>1        0.1252
      6 C5         12.6475   11.6107   17.0049 C.ar    1  <0>1       -0.1792
      7 C6         12.7230   10.3195   16.5296 C.ar    1  <0>1       -0.0658
      8 C7         11.9759    9.9453   15.4215 C.ar    1  <0>1        0.0174
      9 C8         11.1436   10.8815   14.7856 C.ar    1  <0>1        0.0884
     10 C9         11.0755   12.1880   15.2771 C.ar    1  <0>1       -0.1052
     11 N1         10.5454   10.2409   13.7483 N.ar    1  <0>1       -0.4901
     12 C10        10.9458    9.0036   13.7065 C.ar    1  <0>1        0.2771
     13 N2         11.8297    8.7638   14.7151 N.ar    1  <0>1       -0.4466
     14 C11        12.4673    7.5468   14.9899 C.ar    1  <0>1        0.1243
     15 C12        13.8438    7.5070   15.1671 C.ar    1  <0>1       -0.1181
     16 C13        14.4685    6.3068   15.4445 C.ar    1  <0>1       -0.1002
     17 C14        13.7261    5.1435   15.5330 C.ar    1  <0>1       -0.1145
     18 C15        12.3558    5.1790   15.3510 C.ar    1  <0>1       -0.0995
     19 C16        11.7245    6.3772   15.0799 C.ar    1  <0>1       -0.1183
     20 H1         12.0377   16.9206   19.9202 H       1  <0>1        0.1091
     21 H2         12.1778   15.1193   20.4048 H       1  <0>1        0.0998
     22 H3         12.3638   16.3293   17.6276 H       1  <0>1        0.1211
     23 H4         12.2663   13.4774   18.8336 H       1  <0>1        0.0680
     24 H5         13.6113   13.9485   17.7671 H       1  <0>1        0.0728
     25 H6         13.2298   11.9002   17.8671 H       1  <0>1        0.1375
     26 H7         13.3628    9.5998   17.0185 H       1  <0>1        0.1271
     27 H8         10.4387   12.9157   14.7961 H       1  <0>1        0.1406
     28 H9         10.6243    8.2732   12.9788 H       1  <0>1        0.2172
     29 H10        14.4248    8.4144   15.0928 H       1  <0>1        0.1292
     30 H11        15.5386    6.2761   15.5875 H       1  <0>1        0.1336
     31 H12        14.2175    4.2055   15.7452 H       1  <0>1        0.1315
     32 H13        11.7786    4.2689   15.4211 H       1  <0>1        0.1346
     33 H14        10.6541    6.4042   14.9385 H       1  <0>1        0.1318
@<TRIPOS>BOND
     1     1     2    2
     2     1    20    1
     3     1    21    1
     4     2     3    1
     5     2    22    1
     6     3     4    1
     7     3    23    1
     8     3    24    1
     9     4     5    1
    10     5    10   ar
    11     5     6   ar
    12     6     7   ar
    13     6    25    1
    14     7     8   ar
    15     7    26    1
    16     8    13   ar
    17     8     9   ar
    18     9    10   ar
    19     9    11   ar
    20    10    27    1
    21    11    12   ar
    22    12    13   ar
    23    12    28    1
    24    13    14    1
    25    14    19   ar
    26    14    15   ar
    27    15    16   ar
    28    15    29    1
    29    16    17   ar
    30    16    30    1
    31    17    18   ar
    32    17    31    1
    33    18    19   ar
    34    18    32    1
    35    19    33    1
@<TRIPOS>MOLECULE
ZINC03815796
 34 36 0 0 0
SMALL
USER_CHARGES

@<TRIPOS>ATOM
      1 C1         14.1641   15.8436   19.9058 C.2     1  <0>1       -0.1503
      2 C2         14.3042   15.5202   18.6441 C.2     1  <0>1       -0.1747
      3 C3         14.0815   14.0969   18.2018 C.3     1  <0>1        0.0839
      4 O1         13.2891   14.0860   17.0127 O.3     1  <0>1       -0.2944
      5 C4         12.9945   12.8709   16.4784 C.ar    1  <0>1        0.1796
      6 C5         13.4626   11.7128   17.0932 C.ar    1  <0>1       -0.1544
      7 C6         13.1714   10.4750   16.5623 C.ar    1  <0>1       -0.0387
      8 C7         12.4069   10.3796   15.4080 C.ar    1  <0>1        0.0359
      9 C8         11.9304   11.5435   14.7819 C.ar    1  <0>1        0.0948
     10 C9         12.2325   12.7931   15.3299 C.ar    1  <0>1       -0.1289
     11 C10        11.2348    9.8485   13.6099 C.ar    1  <0>1        0.3741
     12 N1         11.9501    9.3208   14.6423 N.ar    1  <0>1       -0.3696
     13 C11        12.1760    7.9598   14.8869 C.ar    1  <0>1        0.0689
     14 C12        13.4652    7.4994   15.1193 C.ar    1  <0>1       -0.0957
     15 C13        13.6838    6.1583   15.3667 C.ar    1  <0>1       -0.0960
     16 C14        12.6221    5.2723   15.3704 C.ar    1  <0>1       -0.0824
     17 C15        11.3378    5.7269   15.1333 C.ar    1  <0>1       -0.0959
     18 C16        11.1119    7.0679   14.8918 C.ar    1  <0>1       -0.0994
     19 H1         14.3237   16.8636   20.2227 H       1  <0>1        0.1151
     20 H2         13.8890   15.0902   20.6290 H       1  <0>1        0.1025
     21 H3         14.5794   16.2736   17.9209 H       1  <0>1        0.1250
     22 H4         13.5634   13.5488   18.9888 H       1  <0>1        0.0772
     23 H5         15.0430   13.6237   18.0021 H       1  <0>1        0.0820
     24 H6         14.0579   11.7851   17.9914 H       1  <0>1        0.1607
     25 H7         13.5377    9.5803   17.0438 H       1  <0>1        0.1543
     26 H8         11.8710   13.6943   14.8570 H       1  <0>1        0.1620
     27 H9         10.7479    9.2731   12.8365 H       1  <0>1        0.2660
     28 H10        14.2954    8.1901   15.1113 H       1  <0>1        0.1375
     29 H11        14.6857    5.8004   15.5527 H       1  <0>1        0.1466
     30 H12        12.7962    4.2234   15.5594 H       1  <0>1        0.1443
     31 H13        10.5105    5.0326   15.1372 H       1  <0>1        0.1470
     32 H14        10.1085    7.4223   14.7073 H       1  <0>1        0.1388
     33 N2         11.2230   11.1480   13.6909 N.ar    1  <0>1       -0.4980
     34 H15        10.7512   11.7778   13.0314 H       1  <0>1        0.4821
@<TRIPOS>BOND
     1     1     2    2
     2     1    19    1
     3     1    20    1
     4     2     3    1
     5     2    21    1
     6     3     4    1
     7     3    22    1
     8     3    23    1
     9     4     5    1
    10     5    10   ar
    11     5     6   ar
    12     6     7   ar
    13     6    24    1
    14     7     8   ar
    15     7    25    1
    16     8    12   ar
    17     8     9   ar
    18     9    10   ar
    19     9    33   ar
    20    10    26    1
    21    11    12   ar
    22    11    27    1
    23    11    33   ar
    24    12    13    1
    25    13    18   ar
    26    13    14   ar
    27    14    15   ar
    28    14    28    1
    29    15    16   ar
    30    15    29    1
    31    16    17   ar
    32    16    30    1
    33    17    18   ar
    34    17    31    1
    35    18    32    1
    36    33    34    1
@<TRIPOS>MOLECULE
ZINC03815797
 26 28 0 0 0
SMALL
USER_CHARGES

@<TRIPOS>ATOM
      1 C1         12.9862   11.4798   12.0341 C.3     1  <0>1        0.0269
      2 O1         13.0499   11.4460   13.4613 O.3     1  <0>1       -0.3148
      3 C2         11.9205   11.7865   14.1379 C.ar    1  <0>1        0.1218
      4 C3         10.7743   12.1461   13.4340 C.ar    1  <0>1       -0.1780
      5 C4          9.6228   12.4925   14.1066 C.ar    1  <0>1       -0.0671
      6 C5          9.6030   12.4843   15.4945 C.ar    1  <0>1        0.0176
      7 C6         10.7569   12.1263   16.2121 C.ar    1  <0>1        0.0881
      8 C7         11.9202   11.7816   15.5182 C.ar    1  <0>1       -0.1058
      9 N1         10.4427   12.2013   17.5308 N.ar    1  <0>1       -0.4908
     10 C8          9.2038   12.5781   17.6658 C.ar    1  <0>1        0.2771
     11 N2          8.6380   12.7706   16.4433 N.ar    1  <0>1       -0.4353
     12 C9          7.3145   13.1794   16.1910 C.ar    1  <0>1        0.0935
     13 C10         6.2494   12.5398   16.8054 C.ar    1  <0>1       -0.1678
     14 C11         4.9889   12.9596   16.5389 C.ar    1  <0>1       -0.1501
     15 S1          5.2758   14.2912   15.3852 S.2     1  <0>1        0.0953
     16 C12         7.0584   14.2083   15.3398 C.ar    1  <0>1       -0.1794
     17 H1         12.7410   12.4897   11.7052 H       1  <0>1        0.0559
     18 H2         13.9513   11.1872   11.6204 H       1  <0>1        0.1019
     19 H3         12.2178   10.7884   11.6882 H       1  <0>1        0.0558
     20 H4         10.7877   12.1531   12.3541 H       1  <0>1        0.1382
     21 H5          8.7368   12.7697   13.5547 H       1  <0>1        0.1264
     22 H6         12.8115   11.5007   16.0597 H       1  <0>1        0.1404
     23 H7          8.6988   12.7171   18.6102 H       1  <0>1        0.2162
     24 H8          6.4215   11.7191   17.4861 H       1  <0>1        0.1446
     25 H9          4.0521   12.5825   16.9219 H       1  <0>1        0.1977
     26 H10         7.7533   14.8157   14.7789 H       1  <0>1        0.1919
@<TRIPOS>BOND
     1     1     2    1
     2     1    17    1
     3     1    18    1
     4     1    19    1
     5     2     3    1
     6     3     8   ar
     7     3     4   ar
     8     4     5   ar
     9     4    20    1
    10     5     6   ar
    11     5    21    1
    12     6    11   ar
    13     6     7   ar
    14     7     8   ar
    15     7     9   ar
    16     8    22    1
    17     9    10   ar
    18    10    11   ar
    19    10    23    1
    20    11    12    1
    21    12    16   ar
    22    12    13   ar
    23    13    14   ar
    24    13    24    1
    25    14    15   ar
    26    14    25    1
    27    15    16   ar
    28    16    26    1
@<TRIPOS>MOLECULE
ZINC03815797
 27 29 0 0 0
SMALL
USER_CHARGES

@<TRIPOS>ATOM
      1 C1         12.1756   10.9538   11.1429 C.3     1  <0>1        0.0174
      2 O1         12.0500   10.3219   12.4184 O.3     1  <0>1       -0.2992
      3 C2         11.2769   10.9492   13.3447 C.ar    1  <0>1        0.1760
      4 C3         10.6528   12.1521   13.0248 C.ar    1  <0>1       -0.1529
      5 C4          9.8659   12.7980   13.9532 C.ar    1  <0>1       -0.0403
      6 C5          9.6932   12.2485   15.2161 C.ar    1  <0>1        0.0365
      7 C6         10.3228   11.0368   15.5478 C.ar    1  <0>1        0.0950
      8 C7         11.1223   10.3937   14.5988 C.ar    1  <0>1       -0.1290
      9 C8          9.1925   11.6784   17.2914 C.ar    1  <0>1        0.3751
     10 N1          8.9892   12.6329   16.3431 N.ar    1  <0>1       -0.3598
     11 C9          8.2035   13.7930   16.4812 C.ar    1  <0>1        0.0481
     12 C10         6.9073   13.7135   16.9655 C.ar    1  <0>1       -0.1763
     13 C11         6.1799   14.8505   17.0848 C.ar    1  <0>1       -0.1373
     14 S1          7.3248   16.0885   16.4992 S.2     1  <0>1        0.1733
     15 C12         8.7026   15.0113   16.1416 C.ar    1  <0>1       -0.1627
     16 H1         12.6149   11.9434   11.2694 H       1  <0>1        0.0670
     17 H2         12.8173   10.3509   10.5004 H       1  <0>1        0.1167
     18 H3         11.1905   11.0493   10.6861 H       1  <0>1        0.0669
     19 H4         10.7860   12.5812   12.0427 H       1  <0>1        0.1616
     20 H5          9.3841   13.7304   13.6986 H       1  <0>1        0.1535
     21 H6         11.6075    9.4598   14.8418 H       1  <0>1        0.1618
     22 H7          8.7686   11.6927   18.2846 H       1  <0>1        0.2653
     23 H8          6.4833   12.7598   17.2431 H       1  <0>1        0.1509
     24 H9          5.1670   14.9750   17.4385 H       1  <0>1        0.2078
     25 H10         9.6786   15.2619   15.7528 H       1  <0>1        0.2015
     26 N2          9.9726   10.7439   16.8273 N.ar    1  <0>1       -0.4988
     27 H11        10.2762    9.9133   17.3487 H       1  <0>1        0.4819
@<TRIPOS>BOND
     1     1     2    1
     2     1    16    1
     3     1    17    1
     4     1    18    1
     5     2     3    1
     6     3     8   ar
     7     3     4   ar
     8     4     5   ar
     9     4    19    1
    10     5     6   ar
    11     5    20    1
    12     6    10   ar
    13     6     7   ar
    14     7     8   ar
    15     7    26   ar
    16     8    21    1
    17     9    10   ar
    18     9    22    1
    19     9    26   ar
    20    10    11    1
    21    11    15   ar
    22    11    12   ar
    23    12    13   ar
    24    12    23    1
    25    13    14   ar
    26    13    24    1
    27    14    15   ar
    28    15    25    1
    29    26    27    1
@<TRIPOS>MOLECULE
ZINC03815798
 29 31 0 0 0
SMALL
USER_CHARGES

@<TRIPOS>ATOM
      1 C1         12.9675    8.8851   12.3839 C.3     1  <0>1       -0.1456
      2 S1         12.2449   10.4337   11.7752 S.3     1  <0>1       -0.1090
      3 C2         11.3076   11.0328   13.1417 C.ar    1  <0>1       -0.0916
      4 C3         11.2747   10.3067   14.3316 C.ar    1  <0>1       -0.1121
      5 C4         10.5457   10.7644   15.4069 C.ar    1  <0>1       -0.0855
      6 C5          9.8391   11.9550   15.3085 C.ar    1  <0>1        0.0452
      7 C6          9.8661   12.6932   14.1134 C.ar    1  <0>1        0.0669
      8 C7         10.6084   12.2204   13.0283 C.ar    1  <0>1       -0.0418
      9 N1          9.0949   13.7941   14.3091 N.ar    1  <0>1       -0.4864
     10 C8          8.6084   13.7806   15.5159 C.ar    1  <0>1        0.2743
     11 N2          9.0335   12.6694   16.1793 N.ar    1  <0>1       -0.4469
     12 C9          8.7193   12.3178   17.4987 C.ar    1  <0>1        0.1225
     13 C10         8.2467   11.0441   17.7856 C.ar    1  <0>1       -0.1174
     14 C11         7.9428   10.6989   19.0879 C.ar    1  <0>1       -0.1001
     15 C12         8.0982   11.6238   20.1040 C.ar    1  <0>1       -0.1135
     16 C13         8.5632   12.8949   19.8207 C.ar    1  <0>1       -0.0995
     17 C14         8.8743   13.2442   18.5212 C.ar    1  <0>1       -0.1174
     18 H1         13.5934    9.0927   13.2517 H       1  <0>1        0.0844
     19 H2         12.1696    8.1987   12.6672 H       1  <0>1        0.0844
     20 H3         13.5735    8.4336   11.5984 H       1  <0>1        0.1109
     21 H4         11.8234    9.3799   14.4103 H       1  <0>1        0.1330
     22 H5         10.5238   10.1973   16.3258 H       1  <0>1        0.1270
     23 H6         10.6364   12.7802   12.1050 H       1  <0>1        0.1385
     24 H7          7.9620   14.5397   15.9310 H       1  <0>1        0.2178
     25 H8          8.1209   10.3227   16.9916 H       1  <0>1        0.1292
     26 H9          7.5795    9.7069   19.3123 H       1  <0>1        0.1339
     27 H10         7.8564   11.3527   21.1211 H       1  <0>1        0.1319
     28 H11         8.6836   13.6150   20.6165 H       1  <0>1        0.1350
     29 H12         9.2380   14.2370   18.3007 H       1  <0>1        0.1320
@<TRIPOS>BOND
     1     1     2    1
     2     1    18    1
     3     1    19    1
     4     1    20    1
     5     2     3    1
     6     3     8   ar
     7     3     4   ar
     8     4     5   ar
     9     4    21    1
    10     5     6   ar
    11     5    22    1
    12     6    11   ar
    13     6     7   ar
    14     7     8   ar
    15     7     9   ar
    16     8    23    1
    17     9    10   ar
    18    10    11   ar
    19    10    24    1
    20    11    12    1
    21    12    17   ar
    22    12    13   ar
    23    13    14   ar
    24    13    25    1
    25    14    15   ar
    26    14    26    1
    27    15    16   ar
    28    15    27    1
    29    16    17   ar
    30    16    28    1
    31    17    29    1
@<TRIPOS>MOLECULE
ZINC03815798
 30 32 0 0 0
SMALL
USER_CHARGES

@<TRIPOS>ATOM
      1 C1         12.1944   11.2197   10.6933 C.3     1  <0>1       -0.1588
      2 S1         12.2815   10.1356   12.1452 S.3     1  <0>1       -0.0546
      3 C2         11.2787   10.9483   13.3446 C.ar    1  <0>1       -0.0541
      4 C3         10.6528   12.1524   13.0242 C.ar    1  <0>1       -0.0887
      5 C4          9.8664   12.7974   13.9531 C.ar    1  <0>1       -0.0582
      6 C5          9.6940   12.2478   15.2160 C.ar    1  <0>1        0.0625
      7 C6         10.3209   11.0352   15.5479 C.ar    1  <0>1        0.0749
      8 C7         11.1167   10.3887   14.5987 C.ar    1  <0>1       -0.0699
      9 C8          9.1977   11.6809   17.2951 C.ar    1  <0>1        0.3755
     10 N1          8.9888   12.6332   16.3437 N.ar    1  <0>1       -0.3727
     11 C9          8.2022   13.7848   16.4789 C.ar    1  <0>1        0.0686
     12 C10         8.7194   15.0254   16.1306 C.ar    1  <0>1       -0.0956
     13 C11         7.9397   16.1580   16.2600 C.ar    1  <0>1       -0.0959
     14 C12         6.6490   16.0588   16.7465 C.ar    1  <0>1       -0.0821
     15 C13         6.1332   14.8254   17.0996 C.ar    1  <0>1       -0.0958
     16 C14         6.9059   13.6884   16.9669 C.ar    1  <0>1       -0.0992
     17 H1         11.1579   11.3098   10.3687 H       1  <0>1        0.0934
     18 H2         12.5811   12.2053   10.9521 H       1  <0>1        0.0934
     19 H3         12.7921   10.7952    9.8866 H       1  <0>1        0.1241
     20 H4         10.7859   12.5820   12.0424 H       1  <0>1        0.1551
     21 H5          9.3846   13.7300   13.6991 H       1  <0>1        0.1532
     22 H6         11.6030    9.4558   14.8432 H       1  <0>1        0.1586
     23 H7          8.7784   11.6979   18.2902 H       1  <0>1        0.2663
     24 H8          9.7289   15.1040   15.7549 H       1  <0>1        0.1374
     25 H9          8.3398   17.1228   15.9851 H       1  <0>1        0.1467
     26 H10         6.0426   16.9464   16.8503 H       1  <0>1        0.1444
     27 H11         5.1248   14.7511   17.4791 H       1  <0>1        0.1471
     28 H12         6.5022   12.7253   17.2423 H       1  <0>1        0.1388
     29 N2          9.9765   10.7463   16.8306 N.ar    1  <0>1       -0.4966
     30 H13        10.2834    9.9177   17.3534 H       1  <0>1        0.4822
@<TRIPOS>BOND
     1     1     2    1
     2     1    17    1
     3     1    18    1
     4     1    19    1
     5     2     3    1
     6     3     8   ar
     7     3     4   ar
     8     4     5   ar
     9     4    20    1
    10     5     6   ar
    11     5    21    1
    12     6    10   ar
    13     6     7   ar
    14     7     8   ar
    15     7    29   ar
    16     8    22    1
    17     9    10   ar
    18     9    23    1
    19     9    29   ar
    20    10    11    1
    21    11    16   ar
    22    11    12   ar
    23    12    13   ar
    24    12    24    1
    25    13    14   ar
    26    13    25    1
    27    14    15   ar
    28    14    26    1
    29    15    16   ar
    30    15    27    1
    31    16    28    1
    32    29    30    1
@<TRIPOS>MOLECULE
ZINC03815799
 31 33 0 0 0
SMALL
USER_CHARGES

@<TRIPOS>ATOM
      1 C1         16.5498    3.4100   16.7039 C.3     1  <0>1        0.0365
      2 O1         15.9699    4.6827   16.3138 O.3     1  <0>1       -0.3546
      3 C2         14.6358    4.7156   16.1279 C.2     1  <0>1        0.5133
      4 O2         13.9752    3.7085   16.2872 O.2     1  <0>1       -0.5034
      5 C3         13.9772    5.9748   15.7306 C.ar    1  <0>1       -0.1356
      6 C4         14.7413    7.1356   15.5466 C.ar    1  <0>1       -0.0485
      7 C5         14.1437    8.3056   15.1790 C.ar    1  <0>1       -0.1172
      8 C6         12.7688    8.3546   14.9774 C.ar    1  <0>1        0.0810
      9 C7         11.9854    7.2004   15.1633 C.ar    1  <0>1        0.0327
     10 C8         12.5988    6.0066   15.5389 C.ar    1  <0>1        0.0166
     11 N1         10.6976    7.5492   14.9051 N.ar    1  <0>1       -0.4758
     12 C9         10.6420    8.8091   14.5870 C.ar    1  <0>1        0.2711
     13 N2         11.8902    9.3561   14.6192 N.ar    1  <0>1       -0.4438
     14 C10        12.2207   10.6878   14.3351 C.ar    1  <0>1        0.1175
     15 C11        13.0097   11.4124   15.2184 C.ar    1  <0>1       -0.1153
     16 C12        13.3334   12.7251   14.9359 C.ar    1  <0>1       -0.0998
     17 C13        12.8724   13.3178   13.7747 C.ar    1  <0>1       -0.1112
     18 C14        12.0859   12.5989   12.8933 C.ar    1  <0>1       -0.0997
     19 C15        11.7589   11.2860   13.1703 C.ar    1  <0>1       -0.1153
     20 H1         16.1143    3.0868   17.6493 H       1  <0>1        0.0651
     21 H2         16.3428    2.6655   15.9351 H       1  <0>1        0.0651
     22 H3         17.6279    3.5223   16.8200 H       1  <0>1        0.1044
     23 H4         15.8103    7.1035   15.6974 H       1  <0>1        0.1481
     24 H5         14.7406    9.1948   15.0396 H       1  <0>1        0.1327
     25 H6         12.0092    5.1129   15.6800 H       1  <0>1        0.1495
     26 H7          9.7383    9.3440   14.3342 H       1  <0>1        0.2204
     27 H8         13.3704   10.9499   16.1254 H       1  <0>1        0.1308
     28 H9         13.9508   13.2877   15.6204 H       1  <0>1        0.1350
     29 H10        13.1267   14.3443   13.5560 H       1  <0>1        0.1325
     30 H11        11.7273   13.0646   11.9872 H       1  <0>1        0.1355
     31 H12        11.1449   10.7249   12.4813 H       1  <0>1        0.1326
@<TRIPOS>BOND
     1     1     2    1
     2     1    20    1
     3     1    21    1
     4     1    22    1
     5     2     3    1
     6     3     4    2
     7     3     5    1
     8     5    10   ar
     9     5     6   ar
    10     6     7   ar
    11     6    23    1
    12     7     8   ar
    13     7    24    1
    14     8    13   ar
    15     8     9   ar
    16     9    10   ar
    17     9    11   ar
    18    10    25    1
    19    11    12   ar
    20    12    13   ar
    21    12    26    1
    22    13    14    1
    23    14    19   ar
    24    14    15   ar
    25    15    16   ar
    26    15    27    1
    27    16    17   ar
    28    16    28    1
    29    17    18   ar
    30    17    29    1
    31    18    19   ar
    32    18    30    1
    33    19    31    1
@<TRIPOS>MOLECULE
ZINC03815799
 32 34 0 0 0
SMALL
USER_CHARGES

@<TRIPOS>ATOM
      1 C1         16.5498    3.4099   16.7039 C.3     1  <0>1        0.0355
      2 O1         15.9700    4.6827   16.3138 O.3     1  <0>1       -0.3489
      3 C2         14.6359    4.7157   16.1279 C.2     1  <0>1        0.5052
      4 O2         13.9752    3.7086   16.2873 O.2     1  <0>1       -0.4846
      5 C3         13.9774    5.9749   15.7306 C.ar    1  <0>1       -0.0805
      6 C4         14.7415    7.1356   15.5466 C.ar    1  <0>1       -0.0201
      7 C5         14.1440    8.3057   15.1789 C.ar    1  <0>1       -0.0924
      8 C6         12.7691    8.3547   14.9774 C.ar    1  <0>1        0.1058
      9 C7         11.9856    7.2007   15.1633 C.ar    1  <0>1        0.0373
     10 C8         12.5990    6.0068   15.5390 C.ar    1  <0>1       -0.0082
     11 C9         10.6423    8.8094   14.5870 C.ar    1  <0>1        0.3836
     12 N1         11.8905    9.3563   14.6192 N.ar    1  <0>1       -0.3769
     13 C10        12.2211   10.6881   14.3351 C.ar    1  <0>1        0.0645
     14 C11        13.0102   11.4126   15.2184 C.ar    1  <0>1       -0.0944
     15 C12        13.3340   12.7252   14.9358 C.ar    1  <0>1       -0.0951
     16 C13        12.8730   13.3179   13.7746 C.ar    1  <0>1       -0.0801
     17 C14        12.0865   12.5991   12.8933 C.ar    1  <0>1       -0.0955
     18 C15        11.7593   11.2862   13.1702 C.ar    1  <0>1       -0.0979
     19 H1         16.1143    3.0868   17.6493 H       1  <0>1        0.0712
     20 H2         16.3428    2.6654   15.9351 H       1  <0>1        0.0711
     21 H3         17.6279    3.5222   16.8200 H       1  <0>1        0.1131
     22 H4         15.8105    7.1035   15.6974 H       1  <0>1        0.1721
     23 H5         14.7409    9.1949   15.0396 H       1  <0>1        0.1602
     24 H6         12.0093    5.1131   15.6800 H       1  <0>1        0.1703
     25 H7          9.7387    9.3444   14.3342 H       1  <0>1        0.2700
     26 H8         13.3709   10.9501   16.1253 H       1  <0>1        0.1387
     27 H9         13.9514   13.2879   15.6203 H       1  <0>1        0.1477
     28 H10        13.1274   14.3444   13.5559 H       1  <0>1        0.1451
     29 H11        11.7279   13.0648   11.9871 H       1  <0>1        0.1477
     30 H12        11.1453   10.7251   12.4812 H       1  <0>1        0.1392
     31 N2         10.6972    7.5490   14.9051 N.ar    1  <0>1       -0.4889
     32 H13         9.8912    6.9148   14.9537 H       1  <0>1        0.4852
@<TRIPOS>BOND
     1     1     2    1
     2     1    19    1
     3     1    20    1
     4     1    21    1
     5     2     3    1
     6     3     4    2
     7     3     5    1
     8     5    10   ar
     9     5     6   ar
    10     6     7   ar
    11     6    22    1
    12     7     8   ar
    13     7    23    1
    14     8    12   ar
    15     8     9   ar
    16     9    10   ar
    17     9    31   ar
    18    10    24    1
    19    11    12   ar
    20    11    25    1
    21    11    31   ar
    22    12    13    1
    23    13    18   ar
    24    13    14   ar
    25    14    15   ar
    26    14    26    1
    27    15    16   ar
    28    15    27    1
    29    16    17   ar
    30    16    28    1
    31    17    18   ar
    32    17    29    1
    33    18    30    1
    34    31    32    1
@<TRIPOS>MOLECULE
ZINC03815800
 30 32 0 0 0
SMALL
USER_CHARGES

@<TRIPOS>ATOM
      1 C1         13.8838    3.5367   16.5346 C.3     1  <0>1       -0.1943
      2 C2         14.7003    4.7614   16.2118 C.2     1  <0>1        0.3997
      3 O1         15.9096    4.7234   16.2957 O.2     1  <0>1       -0.4577
      4 C3         14.0313    6.0018   15.7954 C.ar    1  <0>1       -0.1793
      5 C4         14.7819    7.1734   15.6069 C.ar    1  <0>1       -0.0474
      6 C5         14.1715    8.3299   15.2207 C.ar    1  <0>1       -0.1174
      7 C6         12.7977    8.3567   15.0030 C.ar    1  <0>1        0.0779
      8 C7         12.0279    7.1937   15.1927 C.ar    1  <0>1        0.0307
      9 C8         12.6524    6.0128   15.5878 C.ar    1  <0>1       -0.0054
     10 N1         10.7381    7.5225   14.9170 N.ar    1  <0>1       -0.4787
     11 C9         10.6693    8.7780   14.5853 C.ar    1  <0>1        0.2699
     12 N2         11.9099    9.3421   14.6253 N.ar    1  <0>1       -0.4442
     13 C10        12.2255   10.6752   14.3309 C.ar    1  <0>1        0.1177
     14 C11        12.9963   11.4190   15.2143 C.ar    1  <0>1       -0.1157
     15 C12        13.3065   12.7325   14.9210 C.ar    1  <0>1       -0.0997
     16 C13        12.8497   13.3071   13.7491 C.ar    1  <0>1       -0.1114
     17 C14        12.0814   12.5690   12.8674 C.ar    1  <0>1       -0.0997
     18 C15        11.7683   11.2550   13.1550 C.ar    1  <0>1       -0.1157
     19 H1         12.9205    3.7162   16.3349 H       1  <0>1        0.0749
     20 H2         14.2302    2.6990   15.9293 H       1  <0>1        0.0952
     21 H3         13.9965    3.2927   17.5909 H       1  <0>1        0.0976
     22 H4         15.8495    7.1585   15.7693 H       1  <0>1        0.1429
     23 H5         14.7567    9.2264   15.0789 H       1  <0>1        0.1295
     24 H6         12.0732    5.1127   15.7318 H       1  <0>1        0.1457
     25 H7          9.7615    9.2983   14.3178 H       1  <0>1        0.2191
     26 H8         13.3534   10.9707   16.1298 H       1  <0>1        0.1302
     27 H9         13.9100   13.3101   15.6054 H       1  <0>1        0.1349
     28 H10        13.0931   14.3345   13.5220 H       1  <0>1        0.1326
     29 H11        11.7260   13.0206   11.9529 H       1  <0>1        0.1356
     30 H12        11.1688   10.6788   12.4658 H       1  <0>1        0.1323
@<TRIPOS>BOND
     1     1     2    1
     2     1    19    1
     3     1    20    1
     4     1    21    1
     5     2     3    2
     6     2     4    1
     7     4     9   ar
     8     4     5   ar
     9     5     6   ar
    10     5    22    1
    11     6     7   ar
    12     6    23    1
    13     7    12   ar
    14     7     8   ar
    15     8     9   ar
    16     8    10   ar
    17     9    24    1
    18    10    11   ar
    19    11    12   ar
    20    11    25    1
    21    12    13    1
    22    13    18   ar
    23    13    14   ar
    24    14    15   ar
    25    14    26    1
    26    15    16   ar
    27    15    27    1
    28    16    17   ar
    29    16    28    1
    30    17    18   ar
    31    17    29    1
    32    18    30    1
@<TRIPOS>MOLECULE
ZINC03815800
 31 33 0 0 0
SMALL
USER_CHARGES

@<TRIPOS>ATOM
      1 C1         13.8838    3.5368   16.5346 C.3     1  <0>1       -0.1947
      2 C2         14.7004    4.7614   16.2118 C.2     1  <0>1        0.3896
      3 O1         15.9097    4.7234   16.2957 O.2     1  <0>1       -0.4255
      4 C3         14.0315    6.0019   15.7954 C.ar    1  <0>1       -0.1234
      5 C4         14.7821    7.1735   15.6069 C.ar    1  <0>1       -0.0222
      6 C5         14.1718    8.3300   15.2207 C.ar    1  <0>1       -0.0910
      7 C6         12.7980    8.3569   15.0030 C.ar    1  <0>1        0.1005
      8 C7         12.0281    7.1939   15.1927 C.ar    1  <0>1        0.0368
      9 C8         12.6526    6.0130   15.5877 C.ar    1  <0>1       -0.0305
     10 C9         10.6696    8.7783   14.5853 C.ar    1  <0>1        0.3805
     11 N1         11.9103    9.3423   14.6252 N.ar    1  <0>1       -0.3759
     12 C10        12.2259   10.6754   14.3309 C.ar    1  <0>1        0.0644
     13 C11        12.9968   11.4192   15.2143 C.ar    1  <0>1       -0.0946
     14 C12        13.3069   12.7326   14.9210 C.ar    1  <0>1       -0.0951
     15 C13        12.8502   13.3072   13.7491 C.ar    1  <0>1       -0.0802
     16 C14        12.0819   12.5692   12.8674 C.ar    1  <0>1       -0.0956
     17 C15        11.7688   11.2552   13.1550 C.ar    1  <0>1       -0.0982
     18 H1         12.9205    3.7163   16.3349 H       1  <0>1        0.0731
     19 H2         14.2302    2.6991   15.9293 H       1  <0>1        0.1051
     20 H3         13.9965    3.2928   17.5909 H       1  <0>1        0.1070
     21 H4         15.8497    7.1586   15.7694 H       1  <0>1        0.1665
     22 H5         14.7571    9.2265   15.0789 H       1  <0>1        0.1569
     23 H6         12.0733    5.1129   15.7318 H       1  <0>1        0.1667
     24 H7          9.7618    9.2986   14.3177 H       1  <0>1        0.2687
     25 H8         13.3538   10.9709   16.1298 H       1  <0>1        0.1382
     26 H9         13.9106   13.3102   15.6054 H       1  <0>1        0.1477
     27 H10        13.0937   14.3346   13.5220 H       1  <0>1        0.1452
     28 H11        11.7266   13.0208   11.9529 H       1  <0>1        0.1478
     29 H12        11.1692   10.6790   12.4658 H       1  <0>1        0.1390
     30 N2         10.7377    7.5222   14.9170 N.ar    1  <0>1       -0.4908
     31 H13         9.9397    6.8778   14.9636 H       1  <0>1        0.4838
@<TRIPOS>BOND
     1     1     2    1
     2     1    18    1
     3     1    19    1
     4     1    20    1
     5     2     3    2
     6     2     4    1
     7     4     9   ar
     8     4     5   ar
     9     5     6   ar
    10     5    21    1
    11     6     7   ar
    12     6    22    1
    13     7    11   ar
    14     7     8   ar
    15     8     9   ar
    16     8    30   ar
    17     9    23    1
    18    10    11   ar
    19    10    24    1
    20    10    30   ar
    21    11    12    1
    22    12    17   ar
    23    12    13   ar
    24    13    14   ar
    25    13    25    1
    26    14    15   ar
    27    14    26    1
    28    15    16   ar
    29    15    27    1
    30    16    17   ar
    31    16    28    1
    32    17    29    1
    33    30    31    1
@<TRIPOS>MOLECULE
ZINC03827478
 70 74 0 0 0
SMALL
USER_CHARGES

@<TRIPOS>ATOM
      1 C1         13.4339   11.3909   12.8254 C.3     1  <0>1       -0.1196
      2 C2         12.2771   11.6679   13.7506 C.ar    1  <0>1       -0.1218
      3 C3         11.7509   12.9427   13.8353 C.ar    1  <0>1       -0.0759
      4 C4         10.6865   13.1993   14.6776 C.ar    1  <0>1       -0.1409
      5 C5         10.1494   12.1781   15.4521 C.ar    1  <0>1        0.1443
      6 C6         10.6755   10.8971   15.3697 C.ar    1  <0>1       -0.1476
      7 C7         11.7409   10.6411   14.5180 C.ar    1  <0>1        0.1913
      8 N1         12.2745    9.3516   14.4323 N.pl3   1  <0>1       -0.6315
      9 C8         12.1379    8.4736   15.4952 C.ar    1  <0>1        0.5636
     10 N2         11.6161    8.9120   16.6320 N.ar    1  <0>1       -0.5598
     11 C9         11.4690    8.1045   17.6701 C.ar    1  <0>1        0.1893
     12 C10        11.8674    6.7836   17.5620 C.ar    1  <0>1       -0.2675
     13 C11        12.4138    6.3501   16.3513 C.ar    1  <0>1        0.2735
     14 N3         12.5266    7.2171   15.3475 N.ar    1  <0>1       -0.5553
     15 C12        12.8553    4.9441   16.1852 C.ar    1  <0>1       -0.1248
     16 C13        13.4023    4.5096   14.9740 C.ar    1  <0>1       -0.0257
     17 C14        13.7990    3.1878   14.8696 C.ar    1  <0>1       -0.1769
     18 C15        13.6431    2.3468   15.9567 C.ar    1  <0>1        0.1225
     19 N4         13.1237    2.7854   17.0870 N.ar    1  <0>1       -0.4837
     20 C16        12.7372    4.0360   17.2353 C.ar    1  <0>1        0.1350
     21 N5          9.0759   12.4403   16.3091 N.am    1  <0>1       -0.6528
     22 C17         8.9127   13.6738   16.8270 C.2     1  <0>1        0.5421
     23 O1          9.7490   14.5329   16.6262 O.2     1  <0>1       -0.4944
     24 C18         7.7166   13.9822   17.6389 C.ar    1  <0>1       -0.0781
     25 C19         6.7514   12.9998   17.8664 C.ar    1  <0>1       -0.0818
     26 C20         5.6400   13.2927   18.6295 C.ar    1  <0>1       -0.0926
     27 C21         5.4753   14.5602   19.1592 C.ar    1  <0>1       -0.1587
     28 C22         6.4257   15.5402   18.9331 C.ar    1  <0>1       -0.1023
     29 C23         7.5445   15.2589   18.1766 C.ar    1  <0>1       -0.0541
     30 C24         4.2557   14.8748   19.9866 C.3     1  <0>1        0.0492
     31 C25         3.5432   16.6633   18.5173 C.3     1  <0>1       -0.0352
     32 C26         2.4390   17.1032   17.5533 C.3     1  <0>1       -0.0253
     33 C27         0.8062   15.9004   18.8745 C.3     1  <0>1       -0.0266
     34 C28         1.9105   15.4604   19.8386 C.3     1  <0>1       -0.0270
     35 C29         0.0937   17.6889   17.4053 C.3     1  <0>1       -0.0461
     36 H1         13.0542   11.1022   11.8452 H       1  <0>1        0.0751
     37 H2         14.0445   12.2885   12.7285 H       1  <0>1        0.0763
     38 H3         14.0396   10.5816   13.2332 H       1  <0>1        0.0644
     39 H4         12.1695   13.7391   13.2378 H       1  <0>1        0.1337
     40 H5         10.2743   14.1958   14.7376 H       1  <0>1        0.1376
     41 H6         10.2567   10.1006   15.9670 H       1  <0>1        0.1533
     42 H7         12.7402    9.0718   13.6289 H       1  <0>1        0.4275
     43 H8         11.0431    8.4725   18.5918 H       1  <0>1        0.1729
     44 H9         11.7587    6.1038   18.3942 H       1  <0>1        0.1522
     45 H10        13.5120    5.1882   14.1409 H       1  <0>1        0.1467
     46 H11        14.2259    2.8171   13.9494 H       1  <0>1        0.1449
     47 H12        13.9519    1.3148   15.8788 H       1  <0>1        0.1647
     48 H13        12.3207    4.3592   18.1779 H       1  <0>1        0.1614
     49 H14         8.4511   11.7333   16.5342 H       1  <0>1        0.4079
     50 H15         6.8765   12.0114   17.4495 H       1  <0>1        0.1434
     51 H16         4.8949   12.5322   18.8104 H       1  <0>1        0.1416
     52 H17         6.2914   16.5273   19.3501 H       1  <0>1        0.1406
     53 H18         8.2857   16.0245   18.0011 H       1  <0>1        0.1553
     54 H19         3.9208   13.9723   20.4978 H       1  <0>1        0.1505
     55 H20         4.5036   15.6390   20.7233 H       1  <0>1        0.1487
     56 H21         3.6546   17.4068   19.3066 H       1  <0>1        0.1582
     57 H22         4.4831   16.5659   17.9738 H       1  <0>1        0.1734
     58 H23         2.3462   16.3733   16.7490 H       1  <0>1        0.1552
     59 H24         2.6894   18.0774   17.1331 H       1  <0>1        0.1754
     60 H25         0.6949   15.1569   18.0854 H       1  <0>1        0.1553
     61 H26        -0.1337   15.9973   19.4180 H       1  <0>1        0.1758
     62 H27         1.6598   14.4862   20.2584 H       1  <0>1        0.1755
     63 H28         2.0034   16.1900   20.6431 H       1  <0>1        0.1574
     64 H29        -0.8211   17.8118   17.9849 H       1  <0>1        0.1362
     65 H30         0.3856   18.6486   16.9790 H       1  <0>1        0.1361
     66 H31        -0.0784   16.9720   16.6025 H       1  <0>1        0.1325
     67 N6          3.1802   15.3499   19.0902 N.4     1  <0>1       -0.4058
     68 H32         3.0597   14.6743   18.3265 H       1  <0>1        0.4368
     69 N7          1.1691   17.2137   18.3018 N.4     1  <0>1       -0.4063
     70 H33         1.2895   17.8891   19.0656 H       1  <0>1        0.4405
@<TRIPOS>BOND
     1     1     2    1
     2     1    36    1
     3     1    37    1
     4     1    38    1
     5     2     7   ar
     6     2     3   ar
     7     3     4   ar
     8     3    39    1
     9     4     5   ar
    10     4    40    1
    11     5     6   ar
    12     5    21    1
    13     6     7   ar
    14     6    41    1
    15     7     8    1
    16     8     9    1
    17     8    42    1
    18     9    14   ar
    19     9    10   ar
    20    10    11   ar
    21    11    12   ar
    22    11    43    1
    23    12    13   ar
    24    12    44    1
    25    13    14   ar
    26    13    15    1
    27    15    20   ar
    28    15    16   ar
    29    16    17   ar
    30    16    45    1
    31    17    18   ar
    32    17    46    1
    33    18    19   ar
    34    18    47    1
    35    19    20   ar
    36    20    48    1
    37    21    22   am
    38    21    49    1
    39    22    23    2
    40    22    24    1
    41    24    29   ar
    42    24    25   ar
    43    25    26   ar
    44    25    50    1
    45    26    27   ar
    46    26    51    1
    47    27    28   ar
    48    27    30    1
    49    28    29   ar
    50    28    52    1
    51    29    53    1
    52    30    54    1
    53    30    55    1
    54    30    67    1
    55    31    32    1
    56    31    56    1
    57    31    57    1
    58    31    67    1
    59    32    58    1
    60    32    59    1
    61    32    69    1
    62    33    34    1
    63    33    60    1
    64    33    61    1
    65    33    69    1
    66    34    62    1
    67    34    63    1
    68    34    67    1
    69    35    64    1
    70    35    65    1
    71    35    66    1
    72    35    69    1
    73    67    68    1
    74    69    70    1
@<TRIPOS>MOLECULE
ZINC03832218
 30 32 0 0 0
SMALL
USER_CHARGES

@<TRIPOS>ATOM
      1 C1         12.1209   10.4441   12.0275 C.3     1  <0>1       -0.1186
      2 C2         11.3017   10.9863   13.1702 C.ar    1  <0>1       -0.0607
      3 C3         10.6281   12.1965   13.0169 C.ar    1  <0>1       -0.1159
      4 C4          9.8852   12.7152   14.0329 C.ar    1  <0>1       -0.0600
      5 C5          9.7865   12.0167   15.2480 C.ar    1  <0>1       -0.0986
      6 C6          9.0242   12.5182   16.3175 C.ar    1  <0>1       -0.0513
      7 C7          8.9782   11.7762   17.4883 C.ar    1  <0>1       -0.0847
      8 C8          9.6842   10.5648   17.5677 C.ar    1  <0>1        0.1439
      9 N1         10.3886   10.1152   16.5607 N.ar    1  <0>1       -0.4705
     10 C9         10.4709   10.7855   15.4063 C.ar    1  <0>1        0.1324
     11 C10        11.2326   10.2862   14.3353 C.ar    1  <0>1       -0.1031
     12 C11         8.1895   12.2589   18.6482 C.ar    1  <0>1       -0.0776
     13 C12         8.1358   11.5230   19.8282 C.ar    1  <0>1       -0.1527
     14 C13         7.4066   11.9958   20.8638 C.ar    1  <0>1       -0.1653
     15 S1          6.7572   13.5217   20.2040 S.2     1  <0>1        0.0542
     16 C14         7.5033   13.4396   18.5845 C.ar    1  <0>1       -0.1690
     17 C15         9.1676   14.0282   13.8531 C.3     1  <0>1       -0.1201
     18 H1         13.1425   10.8166   12.1037 H       1  <0>1        0.0755
     19 H2         12.1273    9.3548   12.0696 H       1  <0>1        0.0707
     20 H3         11.6854   10.7685   11.0823 H       1  <0>1        0.0703
     21 H4         10.7000   12.7319   12.0817 H       1  <0>1        0.1289
     22 H5          8.4909   13.4533   16.2301 H       1  <0>1        0.1407
     23 H6          9.6447    9.9906   18.4816 H       1  <0>1        0.1604
     24 H7         11.7614    9.3501   14.4369 H       1  <0>1        0.1356
     25 H8          8.6692   10.5879   19.9155 H       1  <0>1        0.1395
     26 H9          7.2556   11.5612   21.8409 H       1  <0>1        0.1901
     27 H10         7.4306   14.1405   17.7661 H       1  <0>1        0.1865
     28 H11         8.1677   13.8449   13.4601 H       1  <0>1        0.0766
     29 H12         9.0928   14.5360   14.8147 H       1  <0>1        0.0688
     30 H13         9.7236   14.6534   13.1544 H       1  <0>1        0.0739
@<TRIPOS>BOND
     1     1     2    1
     2     1    18    1
     3     1    19    1
     4     1    20    1
     5     2    11   ar
     6     2     3   ar
     7     3     4   ar
     8     3    21    1
     9     4     5   ar
    10     4    17    1
    11     5    10   ar
    12     5     6   ar
    13     6     7   ar
    14     6    22    1
    15     7     8   ar
    16     7    12    1
    17     8     9   ar
    18     8    23    1
    19     9    10   ar
    20    10    11   ar
    21    11    24    1
    22    12    16   ar
    23    12    13   ar
    24    13    14   ar
    25    13    25    1
    26    14    15   ar
    27    14    26    1
    28    15    16   ar
    29    16    27    1
    30    17    28    1
    31    17    29    1
    32    17    30    1
@<TRIPOS>MOLECULE
ZINC03832219
 51 54 0 0 0
SMALL
USER_CHARGES

@<TRIPOS>ATOM
      1 C1         17.1973    3.4570   17.8395 C.3     1  <0>1       -0.1225
      2 C2         16.0082    4.0853   17.1595 C.ar    1  <0>1       -0.0548
      3 C3         15.0627    3.2833   16.5454 C.ar    1  <0>1       -0.1286
      4 C4         13.9718    3.8521   15.9212 C.ar    1  <0>1       -0.0511
      5 C5         13.8232    5.2400   15.9101 C.ar    1  <0>1       -0.1453
      6 C6         14.7835    6.0435   16.5270 C.ar    1  <0>1       -0.0806
      7 C7         15.8667    5.4616   17.1526 C.ar    1  <0>1       -0.1285
      8 C8         12.6571    5.8564   15.2427 C.2     1  <0>1        0.5611
      9 O1         11.8224    5.1540   14.7063 O.2     1  <0>1       -0.5128
     10 N1         12.5165    7.1967   15.2338 N.am    1  <0>1       -0.6646
     11 C9         11.4743    7.7856   14.5109 C.ar    1  <0>1        0.1637
     12 C10        10.9520    7.1431   13.3949 C.ar    1  <0>1       -0.1428
     13 C11         9.9183    7.7211   12.6839 C.ar    1  <0>1       -0.0760
     14 C12         9.4085    8.9453   13.0723 C.ar    1  <0>1       -0.1352
     15 C13         9.9299    9.5957   14.1838 C.ar    1  <0>1        0.1852
     16 C14        10.9644    9.0147   14.9039 C.ar    1  <0>1       -0.1533
     17 N2          9.4130   10.8338   14.5766 N.pl3   1  <0>1       -0.6301
     18 C15         9.5233   11.2436   15.8954 C.ar    1  <0>1        0.5648
     19 N3         10.0037   10.3983   16.7962 N.ar    1  <0>1       -0.5529
     20 C16        10.1246   10.7518   18.0657 C.ar    1  <0>1        0.1929
     21 C17         9.7425   12.0241   18.4534 C.ar    1  <0>1       -0.2701
     22 C18         9.2398   12.8931   17.4818 C.ar    1  <0>1        0.2656
     23 N4          9.1513   12.4709   16.2225 N.ar    1  <0>1       -0.5588
     24 C19         8.8171   14.2671   17.8467 C.ar    1  <0>1       -0.1160
     25 C20         8.3140   15.1373   16.8749 C.ar    1  <0>1       -0.0277
     26 C21         7.9333   16.4090   17.2666 C.ar    1  <0>1       -0.1781
     27 C22         8.0617   16.7749   18.5943 C.ar    1  <0>1        0.1166
     28 N5          8.5400   15.9319   19.4889 N.ar    1  <0>1       -0.4846
     29 C23         8.9097   14.7098   19.1647 C.ar    1  <0>1        0.1331
     30 C24         8.2852    9.5755   12.2897 C.3     1  <0>1       -0.1130
     31 H1         18.0131    3.3551   17.1238 H       1  <0>1        0.0768
     32 H2         17.5176    4.0884   18.6682 H       1  <0>1        0.0708
     33 H3         16.9212    2.4728   18.2182 H       1  <0>1        0.0713
     34 H4         15.1791    2.2096   16.5544 H       1  <0>1        0.1319
     35 H5         13.2343    3.2248   15.4424 H       1  <0>1        0.1382
     36 H6         14.6767    7.1183   16.5181 H       1  <0>1        0.1253
     37 H7         16.6079    6.0820   17.6345 H       1  <0>1        0.1305
     38 H8         13.1383    7.7529   15.7288 H       1  <0>1        0.4093
     39 H9         11.3517    6.1886   13.0857 H       1  <0>1        0.1418
     40 H10         9.5111    7.2177   11.8196 H       1  <0>1        0.1302
     41 H11        11.3718    9.5183   15.7680 H       1  <0>1        0.1516
     42 H12         8.9771   11.4060   13.9259 H       1  <0>1        0.4246
     43 H13        10.5170   10.0547   18.7914 H       1  <0>1        0.1748
     44 H14         9.8305   12.3377   19.4832 H       1  <0>1        0.1506
     45 H15         8.2248   14.8252   15.8448 H       1  <0>1        0.1467
     46 H16         7.5400   17.1080   16.5433 H       1  <0>1        0.1425
     47 H17         7.7654   17.7664   18.9035 H       1  <0>1        0.1619
     48 H18         9.2924   14.0466   19.9263 H       1  <0>1        0.1625
     49 H19         8.6996   10.2034   11.5011 H       1  <0>1        0.0702
     50 H20         7.6687    8.7939   11.8456 H       1  <0>1        0.0724
     51 H21         7.6750   10.1848   12.9565 H       1  <0>1        0.0603
@<TRIPOS>BOND
     1     1     2    1
     2     1    31    1
     3     1    32    1
     4     1    33    1
     5     2     7   ar
     6     2     3   ar
     7     3     4   ar
     8     3    34    1
     9     4     5   ar
    10     4    35    1
    11     5     6   ar
    12     5     8    1
    13     6     7   ar
    14     6    36    1
    15     7    37    1
    16     8     9    2
    17     8    10   am
    18    10    11    1
    19    10    38    1
    20    11    16   ar
    21    11    12   ar
    22    12    13   ar
    23    12    39    1
    24    13    14   ar
    25    13    40    1
    26    14    15   ar
    27    14    30    1
    28    15    16   ar
    29    15    17    1
    30    16    41    1
    31    17    18    1
    32    17    42    1
    33    18    23   ar
    34    18    19   ar
    35    19    20   ar
    36    20    21   ar
    37    20    43    1
    38    21    22   ar
    39    21    44    1
    40    22    23   ar
    41    22    24    1
    42    24    29   ar
    43    24    25   ar
    44    25    26   ar
    45    25    45    1
    46    26    27   ar
    47    26    46    1
    48    27    28   ar
    49    27    47    1
    50    28    29   ar
    51    29    48    1
    52    30    49    1
    53    30    50    1
    54    30    51    1
@<TRIPOS>MOLECULE
ZINC03832221
 48 51 0 0 0
SMALL
USER_CHARGES

@<TRIPOS>ATOM
      1 C1         10.7586   12.0009   14.9137 C.3     1  <0>1       -0.1135
      2 C2          9.8652   10.9938   14.2364 C.ar    1  <0>1       -0.1336
      3 C3          8.6162   11.3735   13.7835 C.ar    1  <0>1       -0.0760
      4 C4          7.7966   10.4548   13.1571 C.ar    1  <0>1       -0.1415
      5 C5          8.2214    9.1422   12.9906 C.ar    1  <0>1        0.1618
      6 C6          9.4747    8.7575   13.4446 C.ar    1  <0>1       -0.1520
      7 C7         10.2981    9.6843   14.0684 C.ar    1  <0>1        0.1855
      8 N1         11.5616    9.3006   14.5277 N.pl3   1  <0>1       -0.6303
      9 C8         11.8104    7.9750   14.8443 C.ar    1  <0>1        0.5646
     10 N2         10.8072    7.1090   14.8322 N.ar    1  <0>1       -0.5532
     11 C9         11.0040    5.8343   15.1282 C.ar    1  <0>1        0.1929
     12 C10        12.2782    5.4041   15.4548 C.ar    1  <0>1       -0.2697
     13 C11        13.3158    6.3398   15.4593 C.ar    1  <0>1        0.2659
     14 N3         13.0449    7.6049   15.1460 N.ar    1  <0>1       -0.5586
     15 C12        14.6989    5.9287   15.8019 C.ar    1  <0>1       -0.1164
     16 C13        15.7377    6.8645   15.8066 C.ar    1  <0>1       -0.0276
     17 C14        17.0106    6.4304   16.1337 C.ar    1  <0>1       -0.1781
     18 C15        17.2123    5.0973   16.4427 C.ar    1  <0>1        0.1169
     19 N4         16.2122    4.2374   16.4303 N.ar    1  <0>1       -0.4845
     20 C16        14.9832    4.6047   16.1300 C.ar    1  <0>1        0.1332
     21 N5          7.3888    8.2115   12.3610 N.am    1  <0>1       -0.6630
     22 C17         6.0503    8.3586   12.4169 C.2     1  <0>1        0.5609
     23 O1          5.5638    9.2445   13.0926 O.2     1  <0>1       -0.5084
     24 C18         5.1741    7.4431   11.6570 C.ar    1  <0>1       -0.1339
     25 C19         5.7302    6.4284   10.8756 C.ar    1  <0>1       -0.0728
     26 C20         4.9072    5.5738   10.1728 C.ar    1  <0>1       -0.1167
     27 C21         3.5319    5.7275   10.2322 C.ar    1  <0>1       -0.0088
     28 C22         2.9745    6.7358   11.0012 C.ar    1  <0>1       -0.1166
     29 C23         3.7870    7.5930   11.7129 C.ar    1  <0>1       -0.0428
     30 Cl1         2.5024    4.6515    9.3398 Cl      1  <0>1       -0.0567
     31 H1         11.3805   12.4948   14.1673 H       1  <0>1        0.0706
     32 H2         10.1464   12.7435   15.4255 H       1  <0>1        0.0728
     33 H3         11.3949   11.4927   15.6383 H       1  <0>1        0.0605
     34 H4          8.2820   12.3920   13.9153 H       1  <0>1        0.1307
     35 H5          6.8229   10.7561   12.8000 H       1  <0>1        0.1413
     36 H6          9.8089    7.7391   13.3124 H       1  <0>1        0.1520
     37 H7         12.2641    9.9624   14.6247 H       1  <0>1        0.4248
     38 H8         10.1792    5.1372   15.1155 H       1  <0>1        0.1749
     39 H9         12.4660    4.3694   15.7007 H       1  <0>1        0.1508
     40 H10        15.5517    7.8995   15.5609 H       1  <0>1        0.1467
     41 H11        17.8373    7.1252   16.1480 H       1  <0>1        0.1425
     42 H12        18.2043    4.7552   16.6984 H       1  <0>1        0.1620
     43 H13        14.1896    3.8723   16.1347 H       1  <0>1        0.1625
     44 H14         7.7746    7.4580   11.8875 H       1  <0>1        0.4096
     45 H15         6.8025    6.3104   10.8250 H       1  <0>1        0.1357
     46 H16         5.3359    4.7857    9.5716 H       1  <0>1        0.1428
     47 H17         1.9015    6.8507   11.0436 H       1  <0>1        0.1442
     48 H18         3.3513    8.3784   12.3126 H       1  <0>1        0.1488
@<TRIPOS>BOND
     1     1     2    1
     2     1    31    1
     3     1    32    1
     4     1    33    1
     5     2     7   ar
     6     2     3   ar
     7     3     4   ar
     8     3    34    1
     9     4     5   ar
    10     4    35    1
    11     5     6   ar
    12     5    21    1
    13     6     7   ar
    14     6    36    1
    15     7     8    1
    16     8     9    1
    17     8    37    1
    18     9    14   ar
    19     9    10   ar
    20    10    11   ar
    21    11    12   ar
    22    11    38    1
    23    12    13   ar
    24    12    39    1
    25    13    14   ar
    26    13    15    1
    27    15    20   ar
    28    15    16   ar
    29    16    17   ar
    30    16    40    1
    31    17    18   ar
    32    17    41    1
    33    18    19   ar
    34    18    42    1
    35    19    20   ar
    36    20    43    1
    37    21    22   am
    38    21    44    1
    39    22    23    2
    40    22    24    1
    41    24    29   ar
    42    24    25   ar
    43    25    26   ar
    44    25    45    1
    45    26    27   ar
    46    26    46    1
    47    27    28   ar
    48    27    30    1
    49    28    29   ar
    50    28    47    1
    51    29    48    1
@<TRIPOS>MOLECULE
ZINC03832225
 54 58 0 0 0
SMALL
USER_CHARGES

@<TRIPOS>ATOM
      1 C1         13.4501   11.3954   12.8450 C.3     1  <0>1       -0.1131
      2 C2         12.2866   11.6707   13.7623 C.ar    1  <0>1       -0.1346
      3 C3         11.7585   12.9450   13.8440 C.ar    1  <0>1       -0.0765
      4 C4         10.6960   13.2028   14.6883 C.ar    1  <0>1       -0.1418
      5 C5         10.1509   12.1793   15.4542 C.ar    1  <0>1        0.1632
      6 C6         10.6750   10.8975   15.3702 C.ar    1  <0>1       -0.1527
      7 C7         11.7425   10.6418   14.5211 C.ar    1  <0>1        0.1850
      8 N1         12.2736    9.3514   14.4334 N.pl3   1  <0>1       -0.6303
      9 C8         12.1321    8.4706   15.4934 C.ar    1  <0>1        0.5647
     10 N2         11.6084    8.9071   16.6300 N.ar    1  <0>1       -0.5528
     11 C9         11.4567    8.0970   17.6654 C.ar    1  <0>1        0.1930
     12 C10        11.8520    6.7755   17.5547 C.ar    1  <0>1       -0.2701
     13 C11        12.4006    6.3441   16.3442 C.ar    1  <0>1        0.2656
     14 N3         12.5278    7.2163   15.3466 N.ar    1  <0>1       -0.5588
     15 C12        12.8402    4.9378   16.1756 C.ar    1  <0>1       -0.1160
     16 C13        13.3892    4.5055   14.9646 C.ar    1  <0>1       -0.0277
     17 C14        13.7844    3.1833   14.8581 C.ar    1  <0>1       -0.1782
     18 C15        13.6249    2.3400   15.9427 C.ar    1  <0>1        0.1166
     19 N4         13.1039    2.7768   17.0730 N.ar    1  <0>1       -0.4846
     20 C16        12.7180    4.0273   17.2231 C.ar    1  <0>1        0.1331
     21 N5          9.0756   12.4413   16.3089 N.am    1  <0>1       -0.6638
     22 C17         8.9144   13.6733   16.8310 C.2     1  <0>1        0.5612
     23 O1          9.7541   14.5307   16.6363 O.2     1  <0>1       -0.5132
     24 C18         7.7172   13.9820   17.6399 C.ar    1  <0>1       -0.1403
     25 C19         6.7461   12.9877   17.8568 C.ar    1  <0>1       -0.0933
     26 C20         5.6408   13.2453   18.6012 C.ar    1  <0>1       -0.1064
     27 C21         5.4488   14.5234   19.1574 C.ar    1  <0>1       -0.0320
     28 C22         4.3094   14.8154   19.9255 C.ar    1  <0>1       -0.1135
     29 C23         4.1505   16.0614   20.4506 C.ar    1  <0>1       -0.1019
     30 C24         5.1026   17.0567   20.2384 C.ar    1  <0>1       -0.1178
     31 C25         6.2187   16.8115   19.4995 C.ar    1  <0>1       -0.0947
     32 C26         6.4175   15.5361   18.9410 C.ar    1  <0>1       -0.0646
     33 C27         7.5568   15.2498   18.1739 C.ar    1  <0>1       -0.0258
     34 H1         13.0776   11.1117   11.8607 H       1  <0>1        0.0702
     35 H2         14.0632   12.2923   12.7567 H       1  <0>1        0.0724
     36 H3         14.0511   10.5833   13.2540 H       1  <0>1        0.0604
     37 H4         12.1806   13.7422   13.2501 H       1  <0>1        0.1302
     38 H5         10.2883   14.2008   14.7529 H       1  <0>1        0.1415
     39 H6         10.2533   10.1005   15.9646 H       1  <0>1        0.1519
     40 H7         12.7412    9.0728   13.6305 H       1  <0>1        0.4247
     41 H8         11.0284    8.4633   18.5868 H       1  <0>1        0.1748
     42 H9         11.7389    6.0934   18.3843 H       1  <0>1        0.1506
     43 H10        13.5018    5.1858   14.1334 H       1  <0>1        0.1467
     44 H11        14.2130    2.8142   13.9380 H       1  <0>1        0.1424
     45 H12        13.9322    1.3077   15.8631 H       1  <0>1        0.1619
     46 H13        12.2997    4.3487   18.1655 H       1  <0>1        0.1625
     47 H14         8.4457   11.7363   16.5261 H       1  <0>1        0.4097
     48 H15         6.8841   12.0055   17.4297 H       1  <0>1        0.1254
     49 H16         4.9060   12.4704   18.7625 H       1  <0>1        0.1345
     50 H17         3.5627   14.0546   20.0989 H       1  <0>1        0.1309
     51 H18         3.2730   16.2820   21.0403 H       1  <0>1        0.1270
     52 H19         4.9522   18.0369   20.6662 H       1  <0>1        0.1276
     53 H20         6.9481   17.5925   19.3425 H       1  <0>1        0.1323
     54 H21         8.3024   16.0119   18.0010 H       1  <0>1        0.1442
@<TRIPOS>BOND
     1     1     2    1
     2     1    34    1
     3     1    35    1
     4     1    36    1
     5     2     7   ar
     6     2     3   ar
     7     3     4   ar
     8     3    37    1
     9     4     5   ar
    10     4    38    1
    11     5     6   ar
    12     5    21    1
    13     6     7   ar
    14     6    39    1
    15     7     8    1
    16     8     9    1
    17     8    40    1
    18     9    14   ar
    19     9    10   ar
    20    10    11   ar
    21    11    12   ar
    22    11    41    1
    23    12    13   ar
    24    12    42    1
    25    13    14   ar
    26    13    15    1
    27    15    20   ar
    28    15    16   ar
    29    16    17   ar
    30    16    43    1
    31    17    18   ar
    32    17    44    1
    33    18    19   ar
    34    18    45    1
    35    19    20   ar
    36    20    46    1
    37    21    22   am
    38    21    47    1
    39    22    23    2
    40    22    24    1
    41    24    33   ar
    42    24    25   ar
    43    25    26   ar
    44    25    48    1
    45    26    27   ar
    46    26    49    1
    47    27    32   ar
    48    27    28   ar
    49    28    29   ar
    50    28    50    1
    51    29    30   ar
    52    29    51    1
    53    30    31   ar
    54    30    52    1
    55    31    32   ar
    56    31    53    1
    57    32    33   ar
    58    33    54    1
@<TRIPOS>MOLECULE
ZINC03832227
 54 58 0 0 0
SMALL
USER_CHARGES

@<TRIPOS>ATOM
      1 C1         10.7476   11.9137   15.2988 C.3     1  <0>1       -0.1144
      2 C2          9.8257   10.9784   14.5595 C.ar    1  <0>1       -0.1230
      3 C3          8.5445   11.3837   14.2380 C.ar    1  <0>1       -0.0832
      4 C4          7.6983   10.5318   13.5550 C.ar    1  <0>1       -0.1269
      5 C5          8.1298    9.2595   13.1990 C.ar    1  <0>1        0.1542
      6 C6          9.4156    8.8495   13.5204 C.ar    1  <0>1       -0.1334
      7 C7         10.2652    9.7100   14.2016 C.ar    1  <0>1        0.1772
      8 N1         11.5616    9.3006   14.5277 N.pl3   1  <0>1       -0.6329
      9 C8         11.8116    7.9737   14.8381 C.ar    1  <0>1        0.5662
     10 N2         10.8106    7.1053   14.8138 N.ar    1  <0>1       -0.5548
     11 C9         11.0088    5.8293   15.1035 C.ar    1  <0>1        0.1952
     12 C10        12.2817    5.4005   15.4363 C.ar    1  <0>1       -0.2714
     13 C11        13.3168    6.3387   15.4534 C.ar    1  <0>1        0.2657
     14 N3         13.0449    7.6049   15.1460 N.ar    1  <0>1       -0.5599
     15 C12        14.6987    5.9289   15.8031 C.ar    1  <0>1       -0.1156
     16 C13        15.7351    6.8672   15.8207 C.ar    1  <0>1       -0.0278
     17 C14        17.0068    6.4343   16.1533 C.ar    1  <0>1       -0.1782
     18 C15        17.2099    5.0998   16.4551 C.ar    1  <0>1        0.1164
     19 N4         16.2122    4.2374   16.4303 N.ar    1  <0>1       -0.4846
     20 C16        14.9841    4.6037   16.1252 C.ar    1  <0>1        0.1329
     21 N5          7.2706    8.3956   12.5128 N.am    1  <0>1       -0.6657
     22 C17         5.9565    8.3743   12.8116 C.2     1  <0>1        0.5664
     23 O1          5.5032    9.1645   13.6172 O.2     1  <0>1       -0.5106
     24 C18         5.0687    7.3928   12.1619 C.ar    1  <0>1       -0.1282
     25 C19         5.5532    6.5632   11.1611 C.ar    1  <0>1       -0.0691
     26 C20         4.7203    5.6405   10.5413 C.ar    1  <0>1       -0.1323
     27 C21         3.4124    5.5154   10.9039 C.ar    1  <0>1       -0.0689
     28 C22         2.8803    6.3308   11.9175 C.ar    1  <0>1       -0.0610
     29 C23         3.7120    7.2816   12.5573 C.ar    1  <0>1       -0.0106
     30 C24         3.1803    8.0934   13.5683 C.ar    1  <0>1       -0.1175
     31 C25         1.8714    7.9595   13.9227 C.ar    1  <0>1       -0.1125
     32 C26         1.0513    7.0249   13.2946 C.ar    1  <0>1       -0.1122
     33 C27         1.5347    6.2197   12.3091 C.ar    1  <0>1       -0.1100
     34 H1         11.3115   12.5101   14.5816 H       1  <0>1        0.0709
     35 H2         10.1603   12.5732   15.9377 H       1  <0>1        0.0722
     36 H3         11.4379   11.3342   15.9118 H       1  <0>1        0.0621
     37 H4          8.2053   12.3703   14.5173 H       1  <0>1        0.1307
     38 H5          6.6989   10.8531   13.3012 H       1  <0>1        0.1380
     39 H6          9.7549    7.8631   13.2407 H       1  <0>1        0.1446
     40 H7         12.2861    9.9456   14.5366 H       1  <0>1        0.4244
     41 H8         10.1858    5.1303   15.0809 H       1  <0>1        0.1740
     42 H9         12.4705    4.3647   15.6773 H       1  <0>1        0.1502
     43 H10        15.5480    7.9034   15.5802 H       1  <0>1        0.1466
     44 H11        17.8317    7.1310   16.1775 H       1  <0>1        0.1423
     45 H12        18.2010    4.7585   16.7156 H       1  <0>1        0.1619
     46 H13        14.1922    3.8692   16.1200 H       1  <0>1        0.1624
     47 H14         7.6204    7.8117   11.8217 H       1  <0>1        0.4092
     48 H15         6.5870    6.6385   10.8579 H       1  <0>1        0.1269
     49 H16         5.1171    5.0079    9.7610 H       1  <0>1        0.1324
     50 H17         2.7839    4.7879   10.4118 H       1  <0>1        0.1332
     51 H18         3.8049    8.8217   14.0641 H       1  <0>1        0.1687
     52 H19         1.4641    8.5867   14.7020 H       1  <0>1        0.1253
     53 H20         0.0174    6.9376   13.5942 H       1  <0>1        0.1248
     54 H21         0.8878    5.4991   11.8308 H       1  <0>1        0.1296
@<TRIPOS>BOND
     1     1     2    1
     2     1    34    1
     3     1    35    1
     4     1    36    1
     5     2     7   ar
     6     2     3   ar
     7     3     4   ar
     8     3    37    1
     9     4     5   ar
    10     4    38    1
    11     5     6   ar
    12     5    21    1
    13     6     7   ar
    14     6    39    1
    15     7     8    1
    16     8     9    1
    17     8    40    1
    18     9    14   ar
    19     9    10   ar
    20    10    11   ar
    21    11    12   ar
    22    11    41    1
    23    12    13   ar
    24    12    42    1
    25    13    14   ar
    26    13    15    1
    27    15    20   ar
    28    15    16   ar
    29    16    17   ar
    30    16    43    1
    31    17    18   ar
    32    17    44    1
    33    18    19   ar
    34    18    45    1
    35    19    20   ar
    36    20    46    1
    37    21    22   am
    38    21    47    1
    39    22    23    2
    40    22    24    1
    41    24    29   ar
    42    24    25   ar
    43    25    26   ar
    44    25    48    1
    45    26    27   ar
    46    26    49    1
    47    27    28   ar
    48    27    50    1
    49    28    33   ar
    50    28    29   ar
    51    29    30   ar
    52    30    31   ar
    53    30    51    1
    54    31    32   ar
    55    31    52    1
    56    32    33   ar
    57    32    53    1
    58    33    54    1
@<TRIPOS>MOLECULE
ZINC03832228
 43 45 0 0 0
SMALL
USER_CHARGES

@<TRIPOS>ATOM
      1 C1          5.8199   14.1869   22.0845 C.3     1  <0>1        0.0257
      2 O1          6.6143   13.0074   22.2248 O.3     1  <0>1       -0.3162
      3 C2          7.3127   12.6006   21.1327 C.ar    1  <0>1        0.1323
      4 C3          8.1045   11.4615   21.2021 C.ar    1  <0>1       -0.1513
      5 C4          8.8150   11.0452   20.0973 C.ar    1  <0>1       -0.0634
      6 C5          8.7379   11.7713   18.9052 C.ar    1  <0>1       -0.0995
      7 C6          7.9442   12.9203   18.8420 C.ar    1  <0>1       -0.0691
      8 C7          7.2328   13.3254   19.9505 C.ar    1  <0>1       -0.2079
      9 C8          9.4955   11.3304   17.7212 C.2     1  <0>1       -0.0890
     10 C9          9.4199   12.0297   16.5767 C.2     1  <0>1       -0.1148
     11 C10        10.1775   11.5889   15.3927 C.ar    1  <0>1       -0.1074
     12 C11        10.1084   12.3127   14.2053 C.ar    1  <0>1       -0.0516
     13 C12        10.8452   11.8458   13.1055 C.ar    1  <0>1       -0.0872
     14 C13        10.8174   12.5221   11.8728 C.ar    1  <0>1       -0.1745
     15 C14        11.5444   12.0426   10.8233 C.ar    1  <0>1        0.1254
     16 C15        12.3202   10.8810   10.9611 C.ar    1  <0>1        0.1389
     17 C16        12.3654   10.2043   12.1453 C.ar    1  <0>1       -0.1706
     18 C17        11.6284   10.6711   13.2465 C.ar    1  <0>1        0.1375
     19 N1         11.6605   10.0205   14.4152 N.ar    1  <0>1       -0.4698
     20 C18        10.9819   10.4365   15.4538 C.ar    1  <0>1        0.1355
     21 O2         13.0357   10.4236    9.9003 O.3     1  <0>1       -0.3012
     22 C19        13.8057    9.2366   10.1006 C.3     1  <0>1        0.0216
     23 O3         11.5181   12.6965    9.6317 O.3     1  <0>1       -0.3019
     24 C20        10.7098   13.8725    9.5549 C.3     1  <0>1        0.0227
     25 H1          6.4607   15.0270   21.8170 H       1  <0>1        0.0568
     26 H2          5.0766   14.0334   21.3021 H       1  <0>1        0.0568
     27 H3          5.3161   14.3999   23.0273 H       1  <0>1        0.1021
     28 H4          8.1631   10.9010   22.1235 H       1  <0>1        0.1340
     29 H5          9.4307   10.1596   20.1523 H       1  <0>1        0.1342
     30 H6          7.8850   13.4869   17.9245 H       1  <0>1        0.1283
     31 H7          6.6161   14.2106   19.9014 H       1  <0>1        0.1302
     32 H8         10.1117   10.4449   17.7732 H       1  <0>1        0.1250
     33 H9          8.8037   12.9151   16.5247 H       1  <0>1        0.1246
     34 H10         9.5022   13.2035   14.1312 H       1  <0>1        0.1400
     35 H11        10.2235   13.4168   11.7579 H       1  <0>1        0.1452
     36 H12        12.9664    9.3115   12.2357 H       1  <0>1        0.1508
     37 H13        11.0373    9.8798   16.3777 H       1  <0>1        0.1607
     38 H14        14.5337    9.4054   10.8941 H       1  <0>1        0.0600
     39 H15        13.1442    8.4176   10.3828 H       1  <0>1        0.0600
     40 H16        14.3267    8.9814    9.1778 H       1  <0>1        0.1056
     41 H17        11.0620   14.6036   10.2826 H       1  <0>1        0.0582
     42 H18        10.7781   14.2954    8.5527 H       1  <0>1        0.1051
     43 H19         9.6728   13.6153    9.7709 H       1  <0>1        0.0582
@<TRIPOS>BOND
     1     1     2    1
     2     1    25    1
     3     1    26    1
     4     1    27    1
     5     2     3    1
     6     3     8   ar
     7     3     4   ar
     8     4     5   ar
     9     4    28    1
    10     5     6   ar
    11     5    29    1
    12     6     7   ar
    13     6     9    1
    14     7     8   ar
    15     7    30    1
    16     8    31    1
    17     9    10    2
    18     9    32    1
    19    10    11    1
    20    10    33    1
    21    11    20   ar
    22    11    12   ar
    23    12    13   ar
    24    12    34    1
    25    13    18   ar
    26    13    14   ar
    27    14    15   ar
    28    14    35    1
    29    15    16   ar
    30    15    23    1
    31    16    17   ar
    32    16    21    1
    33    17    18   ar
    34    17    36    1
    35    18    19   ar
    36    19    20   ar
    37    20    37    1
    38    21    22    1
    39    22    38    1
    40    22    39    1
    41    22    40    1
    42    23    24    1
    43    24    41    1
    44    24    42    1
    45    24    43    1
@<TRIPOS>MOLECULE
ZINC03832229
 57 60 0 0 0
SMALL
USER_CHARGES

@<TRIPOS>ATOM
      1 C1          8.5533   20.8146   13.0048 C.3     1  <0>1       -0.1896
      2 C2          7.2491   20.1924   13.5076 C.3     1  <0>1       -0.0079
      3 C3          7.5675   20.7196   15.8492 C.3     1  <0>1       -0.0062
      4 C4          8.2610   20.1842   17.1035 C.3     1  <0>1       -0.1926
      5 C5          6.3824   18.7067   15.2118 C.3     1  <0>1        0.1679
      6 O1          6.8615   17.7862   16.1942 O.3     1  <0>1       -0.2872
      7 C6          7.6646   16.7795   15.7573 C.ar    1  <0>1        0.0581
      8 C7          8.2331   15.9013   16.6683 C.ar    1  <0>1       -0.1001
      9 C8          9.0491   14.8791   16.2254 C.ar    1  <0>1       -0.0674
     10 C9          9.3006   14.7303   14.8678 C.ar    1  <0>1        0.1598
     11 C10         8.7306   15.6096   13.9566 C.ar    1  <0>1       -0.1030
     12 C11         7.9152   16.6316   14.4010 C.ar    1  <0>1       -0.1972
     13 N1         10.1274   13.6938   14.4180 N.pl3   1  <0>1       -0.6319
     14 C12        10.1411   12.4826   15.0832 C.ar    1  <0>1        0.5991
     15 N2          9.3175   12.3075   16.1109 N.ar    1  <0>1       -0.5759
     16 C13         9.2912   11.1698   16.7793 C.ar    1  <0>1        0.2590
     17 C14        10.1555   10.1381   16.3832 C.ar    1  <0>1       -0.2604
     18 C15        10.1730    8.8962   17.0598 C.ar    1  <0>1       -0.0001
     19 C16        11.0342    7.9215   16.6352 C.ar    1  <0>1       -0.1193
     20 C17        11.9137    8.1859   15.4943 C.ar    1  <0>1        0.5452
     21 O2         12.6837    7.3237   15.1101 O.2     1  <0>1       -0.4939
     22 N3         11.8758    9.3777   14.8680 N.ar    1  <0>1       -0.5067
     23 C18        11.0157   10.3616   15.2870 C.ar    1  <0>1        0.4608
     24 N4         10.9706   11.5372   14.6698 N.ar    1  <0>1       -0.5893
     25 C19        12.7620    9.6266   13.7283 C.3     1  <0>1        0.0686
     26 C20        11.0771    6.6095   17.3242 C.ar    1  <0>1       -0.0793
     27 C21        11.5027    6.5128   18.6460 C.ar    1  <0>1       -0.1458
     28 C22        11.5234    5.2992   19.2415 C.ar    1  <0>1       -0.1709
     29 S1         10.9464    4.2271   17.9367 S.2     1  <0>1        0.0604
     30 C23        10.7048    5.4654   16.6740 C.ar    1  <0>1       -0.1420
     31 H1          8.8731   21.5954   13.6949 H       1  <0>1        0.0819
     32 H2          9.3232   20.0454   12.9443 H       1  <0>1        0.0806
     33 H3          8.3927   21.2464   12.0169 H       1  <0>1        0.1094
     34 H4          6.9442   19.3926   12.8328 H       1  <0>1        0.1282
     35 H5          6.4716   20.9556   13.5411 H       1  <0>1        0.1371
     36 H6          8.1521   21.5399   15.4329 H       1  <0>1        0.1290
     37 H7          6.5719   21.0787   16.1097 H       1  <0>1        0.1328
     38 H8          8.3050   20.9699   17.8577 H       1  <0>1        0.1040
     39 H9          7.6996   19.3359   17.4949 H       1  <0>1        0.0922
     40 H10         9.2724   19.8655   16.8515 H       1  <0>1        0.0759
     41 H11         6.0680   18.1590   14.3234 H       1  <0>1        0.1324
     42 H12         5.5352   19.2609   15.6158 H       1  <0>1        0.1744
     43 H13         8.0379   16.0174   17.7241 H       1  <0>1        0.1446
     44 H14         9.4953   14.1981   16.9352 H       1  <0>1        0.1562
     45 H15         8.9256   15.4946   12.9006 H       1  <0>1        0.1386
     46 H16         7.4722   17.3158   13.6925 H       1  <0>1        0.1238
     47 H17        10.6907   13.8259   13.6394 H       1  <0>1        0.4293
     48 H18         8.6188   11.0358   17.6138 H       1  <0>1        0.1904
     49 H19         9.5167    8.7202   17.8992 H       1  <0>1        0.1533
     50 H20        13.7027   10.0464   14.0845 H       1  <0>1        0.0756
     51 H21        12.9566    8.6888   13.2079 H       1  <0>1        0.0942
     52 H22        12.2861   10.3295   13.0446 H       1  <0>1        0.0941
     53 H23        11.8084    7.3950   19.1890 H       1  <0>1        0.1347
     54 H24        11.8182    5.0432   20.2485 H       1  <0>1        0.1895
     55 H25        10.3548    5.3430   15.6597 H       1  <0>1        0.1846
     56 N5          7.4803   19.6297   14.8546 N.4     1  <0>1       -0.4262
     57 H26         8.3655   19.1096   14.8514 H       1  <0>1        0.4270
@<TRIPOS>BOND
     1     1     2    1
     2     1    31    1
     3     1    32    1
     4     1    33    1
     5     2    34    1
     6     2    35    1
     7     2    56    1
     8     3     4    1
     9     3    36    1
    10     3    37    1
    11     3    56    1
    12     4    38    1
    13     4    39    1
    14     4    40    1
    15     5     6    1
    16     5    41    1
    17     5    42    1
    18     5    56    1
    19     6     7    1
    20     7    12   ar
    21     7     8   ar
    22     8     9   ar
    23     8    43    1
    24     9    10   ar
    25     9    44    1
    26    10    11   ar
    27    10    13    1
    28    11    12   ar
    29    11    45    1
    30    12    46    1
    31    13    14    1
    32    13    47    1
    33    14    24   ar
    34    14    15   ar
    35    15    16   ar
    36    16    17   ar
    37    16    48    1
    38    17    23   ar
    39    17    18   ar
    40    18    19   ar
    41    18    49    1
    42    19    20   ar
    43    19    26    1
    44    20    21    2
    45    20    22   ar
    46    22    23   ar
    47    22    25    1
    48    23    24   ar
    49    25    50    1
    50    25    51    1
    51    25    52    1
    52    26    30   ar
    53    26    27   ar
    54    27    28   ar
    55    27    53    1
    56    28    29   ar
    57    28    54    1
    58    29    30   ar
    59    30    55    1
    60    56    57    1
@<TRIPOS>MOLECULE
ZINC03832230
 28 30 0 0 0
SMALL
USER_CHARGES

@<TRIPOS>ATOM
      1 C1         11.9530   11.2498   11.6751 C.3     1  <0>1        0.0240
      2 O1         10.8776   12.0492   12.1717 O.3     1  <0>1       -0.3147
      3 C2         10.7207   12.1032   13.5206 C.ar    1  <0>1        0.1334
      4 C3         11.5962   11.3925   14.3475 C.ar    1  <0>1       -0.1745
      5 C4         11.4654   11.4263   15.7007 C.ar    1  <0>1       -0.0485
      6 C5         10.4368   12.1858   16.2863 C.ar    1  <0>1        0.0929
      7 C6          9.5524   12.9111   15.4480 C.ar    1  <0>1       -0.0556
      8 C7          9.7099   12.8514   14.0537 C.ar    1  <0>1       -0.1476
      9 C8          8.5275   13.6753   16.0327 C.ar    1  <0>1       -0.0627
     10 C9          8.4331   13.6874   17.4165 C.ar    1  <0>1       -0.0677
     11 C10         9.3508   12.9469   18.1788 C.ar    1  <0>1        0.1304
     12 N1         10.2914   12.2325   17.6147 N.ar    1  <0>1       -0.4595
     13 C11         7.3709   14.4772   18.0862 C.ar    1  <0>1       -0.0816
     14 C12         7.2664   14.4969   19.4738 C.ar    1  <0>1       -0.1518
     15 C13         6.2851   15.2291   20.0474 C.ar    1  <0>1       -0.1664
     16 S1          5.4577   15.9299   18.6300 S.2     1  <0>1        0.0556
     17 C14         6.4757   15.2068   17.3544 C.ar    1  <0>1       -0.1651
     18 H1         12.8976   11.6290   12.0649 H       1  <0>1        0.0580
     19 H2         11.8159   10.2170   11.9956 H       1  <0>1        0.0580
     20 H3         11.9653   11.2937   10.5860 H       1  <0>1        0.1034
     21 H4         12.3886   10.8072   13.9046 H       1  <0>1        0.1386
     22 H5         12.1501   10.8708   16.3245 H       1  <0>1        0.1421
     23 H6          9.0388   13.3973   13.4072 H       1  <0>1        0.1390
     24 H7          7.8348   14.2361   15.4228 H       1  <0>1        0.1413
     25 H8          9.2729   12.9598   19.2559 H       1  <0>1        0.1609
     26 H9          7.9591   13.9360   20.0835 H       1  <0>1        0.1399
     27 H10         6.0599   15.3576   21.0959 H       1  <0>1        0.1901
     28 H11         6.4028   15.3165   16.2825 H       1  <0>1        0.1882
@<TRIPOS>BOND
     1     1     2    1
     2     1    18    1
     3     1    19    1
     4     1    20    1
     5     2     3    1
     6     3     8   ar
     7     3     4   ar
     8     4     5   ar
     9     4    21    1
    10     5     6   ar
    11     5    22    1
    12     6    12   ar
    13     6     7   ar
    14     7     8   ar
    15     7     9   ar
    16     8    23    1
    17     9    10   ar
    18     9    24    1
    19    10    11   ar
    20    10    13    1
    21    11    12   ar
    22    11    25    1
    23    13    17   ar
    24    13    14   ar
    25    14    15   ar
    26    14    26    1
    27    15    16   ar
    28    15    27    1
    29    16    17   ar
    30    17    28    1
@<TRIPOS>MOLECULE
ZINC03832231
 43 46 0 0 0
SMALL
USER_CHARGES

@<TRIPOS>ATOM
      1 C1         12.1509   10.5117   12.7721 C.3     1  <0>1       -0.1626
      2 C2         11.4219    9.4785   13.6333 C.3     1  <0>1        0.0964
      3 N1         11.9921    9.4778   14.9828 N.ar    1  <0>1       -0.5038
      4 C3         11.4702   10.3095   15.9409 C.ar    1  <0>1        0.4623
      5 C4         12.0044   10.3170   17.2477 C.ar    1  <0>1       -0.2704
      6 C5         13.0834    9.4665   17.5800 C.ar    1  <0>1        0.0093
      7 C6         13.5980    8.6402   16.6171 C.ar    1  <0>1       -0.1493
      8 C7         13.0200    8.6566   15.2717 C.ar    1  <0>1        0.5485
      9 O1         13.4715    7.9244   14.4092 O.2     1  <0>1       -0.5009
     10 C8         14.7291    7.7370   16.9338 C.ar    1  <0>1       -0.0328
     11 C9         15.9624    7.9133   16.3072 C.ar    1  <0>1       -0.0887
     12 C10        17.0134    7.0721   16.6103 C.ar    1  <0>1       -0.1191
     13 C11        16.8423    6.0484   17.5250 C.ar    1  <0>1       -0.1132
     14 C12        15.6196    5.8653   18.1457 C.ar    1  <0>1       -0.1202
     15 C13        14.5628    6.7036   17.8553 C.ar    1  <0>1       -0.1020
     16 C14        11.4410   11.1818   18.1980 C.ar    1  <0>1        0.2605
     17 N2         10.4346   11.9533   17.8318 N.ar    1  <0>1       -0.5680
     18 C15         9.9577   11.9195   16.5925 C.ar    1  <0>1        0.6049
     19 N3         10.4561   11.1206   15.6617 N.ar    1  <0>1       -0.5904
     20 N4          8.9023   12.7489   16.2624 N.pl3   1  <0>1       -0.6255
     21 C16         8.2833   13.5149   17.2485 C.ar    1  <0>1        0.2035
     22 C17         8.1683   13.0416   18.5551 C.ar    1  <0>1       -0.1668
     23 C18         7.5524   13.8323   19.5026 C.ar    1  <0>1        0.1182
     24 N5          7.0674   15.0175   19.1831 N.ar    1  <0>1       -0.4970
     25 C19         7.1524   15.4986   17.9570 C.ar    1  <0>1        0.1209
     26 C20         7.7577   14.7722   16.9528 C.ar    1  <0>1       -0.2013
     27 H1         11.7266   10.5122   11.7680 H       1  <0>1        0.0775
     28 H2         12.0357   11.5007   13.2156 H       1  <0>1        0.0594
     29 H3         13.2098   10.2583   12.7189 H       1  <0>1        0.0606
     30 H4         11.5370    8.4894   13.1898 H       1  <0>1        0.0984
     31 H5         10.3630    9.7318   13.6865 H       1  <0>1        0.1004
     32 H6         13.4959    9.4686   18.5781 H       1  <0>1        0.1519
     33 H7         16.0958    8.7091   15.5895 H       1  <0>1        0.1201
     34 H8         17.9704    7.2104   16.1290 H       1  <0>1        0.1248
     35 H9         17.6666    5.3898   17.7555 H       1  <0>1        0.1236
     36 H10        15.4920    5.0644   18.8591 H       1  <0>1        0.1254
     37 H11        13.6088    6.5599   18.3409 H       1  <0>1        0.1234
     38 H12        11.8229   11.2158   19.2076 H       1  <0>1        0.1894
     39 H13         8.5924   12.7977   15.3445 H       1  <0>1        0.4292
     40 H14         8.5589   12.0707   18.8222 H       1  <0>1        0.1458
     41 H15         7.4622   13.4754   20.5179 H       1  <0>1        0.1595
     42 H16         6.7426   16.4733   17.7372 H       1  <0>1        0.1604
     43 H17         7.8232   15.1715   15.9515 H       1  <0>1        0.1378
@<TRIPOS>BOND
     1     1     2    1
     2     1    27    1
     3     1    28    1
     4     1    29    1
     5     2     3    1
     6     2    30    1
     7     2    31    1
     8     3     8   ar
     9     3     4   ar
    10     4    19   ar
    11     4     5   ar
    12     5     6   ar
    13     5    16   ar
    14     6     7   ar
    15     6    32    1
    16     7     8   ar
    17     7    10    1
    18     8     9    2
    19    10    15   ar
    20    10    11   ar
    21    11    12   ar
    22    11    33    1
    23    12    13   ar
    24    12    34    1
    25    13    14   ar
    26    13    35    1
    27    14    15   ar
    28    14    36    1
    29    15    37    1
    30    16    17   ar
    31    16    38    1
    32    17    18   ar
    33    18    19   ar
    34    18    20    1
    35    20    21    1
    36    20    39    1
    37    21    26   ar
    38    21    22   ar
    39    22    23   ar
    40    22    40    1
    41    23    24   ar
    42    23    41    1
    43    24    25   ar
    44    25    26   ar
    45    25    42    1
    46    26    43    1
@<TRIPOS>MOLECULE
ZINC03832232
 34 36 0 0 0
SMALL
USER_CHARGES

@<TRIPOS>ATOM
      1 C1         13.4574    9.9526   14.6720 C.3     1  <0>1        0.0231
      2 O1         12.5928   10.6581   13.7795 O.3     1  <0>1       -0.3098
      3 C2         11.5965   11.3928   14.3383 C.ar    1  <0>1        0.1987
      4 C3         11.4636   11.4263   15.7093 C.ar    1  <0>1       -0.2430
      5 C4         10.4368   12.1848   16.2918 C.ar    1  <0>1        0.2040
      6 C5          9.5496   12.9056   15.4523 C.ar    1  <0>1       -0.1508
      7 C6          8.5229   13.6642   16.0346 C.ar    1  <0>1        0.0002
      8 C7          8.4238   13.6739   17.4197 C.ar    1  <0>1       -0.1405
      9 C8          9.3396   12.9348   18.1837 C.ar    1  <0>1        0.1721
     10 N1         10.2909   12.2325   17.6215 N.ar    1  <0>1       -0.4826
     11 C9          7.3570   14.4590   18.0865 C.ar    1  <0>1        0.0117
     12 C10         6.4407   15.2050   17.3392 C.ar    1  <0>1       -0.1700
     13 C11         5.4608   15.9170   17.9995 C.ar    1  <0>1        0.1069
     14 N2          5.3887   15.9081   19.3169 N.ar    1  <0>1       -0.4881
     15 C12         6.2365   15.2217   20.0592 C.ar    1  <0>1        0.1069
     16 C13         7.2436   14.4780   19.4798 C.ar    1  <0>1       -0.1694
     17 C14         9.7108   12.8508   14.0520 C.ar    1  <0>1        0.1983
     18 C15        10.7204   12.1037   13.5155 C.ar    1  <0>1       -0.2458
     19 O2          8.8657   13.5372   13.2412 O.3     1  <0>1       -0.3057
     20 C16         9.0904   13.4342   11.8338 C.3     1  <0>1        0.0219
     21 H1         13.9530   10.6622   15.3346 H       1  <0>1        0.0619
     22 H2         12.8722    9.2496   15.2650 H       1  <0>1        0.0619
     23 H3         14.2064    9.4078   14.0975 H       1  <0>1        0.1053
     24 H4         12.1481   10.8713   16.3336 H       1  <0>1        0.1453
     25 H5          7.8309   14.2248   15.4237 H       1  <0>1        0.1483
     26 H6          9.2552   12.9419   19.2604 H       1  <0>1        0.1648
     27 H7          6.4966   15.2205   16.2608 H       1  <0>1        0.1368
     28 H8          4.7459   16.4930   17.4307 H       1  <0>1        0.1588
     29 H9          6.1410   15.2426   21.1348 H       1  <0>1        0.1596
     30 H10         7.9341   13.9186   20.0935 H       1  <0>1        0.1390
     31 H11        10.8426   12.0626   12.4432 H       1  <0>1        0.1457
     32 H12         9.0071   12.3913   11.5279 H       1  <0>1        0.0632
     33 H13         8.3472   14.0290   11.3027 H       1  <0>1        0.1081
     34 H14        10.0881   13.8036   11.5970 H       1  <0>1        0.0632
@<TRIPOS>BOND
     1     1     2    1
     2     1    21    1
     3     1    22    1
     4     1    23    1
     5     2     3    1
     6     3    18   ar
     7     3     4   ar
     8     4     5   ar
     9     4    24    1
    10     5    10   ar
    11     5     6   ar
    12     6     7   ar
    13     6    17   ar
    14     7     8   ar
    15     7    25    1
    16     8     9   ar
    17     8    11    1
    18     9    10   ar
    19     9    26    1
    20    11    16   ar
    21    11    12   ar
    22    12    13   ar
    23    12    27    1
    24    13    14   ar
    25    13    28    1
    26    14    15   ar
    27    15    16   ar
    28    15    29    1
    29    16    30    1
    30    17    18   ar
    31    17    19    1
    32    18    31    1
    33    19    20    1
    34    20    32    1
    35    20    33    1
    36    20    34    1
@<TRIPOS>MOLECULE
ZINC03832233
 45 48 0 0 0
SMALL
USER_CHARGES

@<TRIPOS>ATOM
      1 C1         13.2915    2.9822   17.2326 C.ar    1  <0>1       -0.0889
      2 C2         13.5094    2.9827   15.8662 C.ar    1  <0>1       -0.1263
      3 C3         13.3734    4.1498   15.1434 C.ar    1  <0>1       -0.0557
      4 C4         13.0152    5.3320   15.7936 C.ar    1  <0>1       -0.1397
      5 C5         12.8021    5.3256   17.1731 C.ar    1  <0>1       -0.0854
      6 C6         12.9358    4.1504   17.8832 C.ar    1  <0>1       -0.1264
      7 C7         12.8682    6.5864   15.0256 C.2     1  <0>1        0.5620
      8 O1         13.0594    6.5901   13.8251 O.2     1  <0>1       -0.5122
      9 N1         12.5223    7.7261   15.6564 N.am    1  <0>1       -0.6671
     10 C8         12.3007    8.8941   14.9189 C.ar    1  <0>1        0.1689
     11 C9         13.0625    9.1568   13.7871 C.ar    1  <0>1       -0.1239
     12 C10        12.8444   10.3097   13.0577 C.ar    1  <0>1       -0.0704
     13 C11        11.8677   11.2055   13.4513 C.ar    1  <0>1       -0.0791
     14 C12        11.0984   10.9453   14.5797 C.ar    1  <0>1        0.1920
     15 C13        11.3196    9.7908   15.3171 C.ar    1  <0>1       -0.1301
     16 N2         10.1064   11.8489   14.9744 N.pl3   1  <0>1       -0.6325
     17 C14         9.8488   12.0504   16.3206 C.ar    1  <0>1        0.5693
     18 N3         10.4987   11.3232   17.2181 N.ar    1  <0>1       -0.5590
     19 C15        10.2809   11.4856   18.5133 C.ar    1  <0>1        0.1950
     20 C16         9.3598   12.4300   18.9316 C.ar    1  <0>1       -0.2696
     21 C17         8.6902   13.1814   17.9626 C.ar    1  <0>1        0.2676
     22 N4          8.9640   12.9677   16.6775 N.ar    1  <0>1       -0.5565
     23 C18         7.6942   14.2060   18.3598 C.ar    1  <0>1       -0.1171
     24 C19         7.0238   14.9584   17.3907 C.ar    1  <0>1       -0.0271
     25 C20         6.1037   15.9021   17.8130 C.ar    1  <0>1       -0.1781
     26 C21         5.8791   16.0693   19.1677 C.ar    1  <0>1        0.1173
     27 N5          6.5271   15.3444   20.0589 N.ar    1  <0>1       -0.4848
     28 C22         7.4073   14.4306   19.7047 C.ar    1  <0>1        0.1335
     29 Cl1        11.5970   12.6530   12.5319 Cl      1  <0>1       -0.0635
     30 H1         13.3993    2.0658   17.7938 H       1  <0>1        0.1299
     31 H2         13.7861    2.0673   15.3644 H       1  <0>1        0.1328
     32 H3         13.5441    4.1490   14.0771 H       1  <0>1        0.1383
     33 H4         12.5291    6.2378   17.6828 H       1  <0>1        0.1260
     34 H5         12.7672    4.1431   18.9499 H       1  <0>1        0.1315
     35 H6         12.4268    7.7365   16.6216 H       1  <0>1        0.4128
     36 H7         13.8264    8.4590   13.4773 H       1  <0>1        0.1493
     37 H8         13.4382   10.5116   12.1786 H       1  <0>1        0.1425
     38 H9         10.7263    9.5886   16.1965 H       1  <0>1        0.1563
     39 H10         9.5987   12.3346   14.3055 H       1  <0>1        0.4273
     40 H11        10.8158   10.8873   19.2361 H       1  <0>1        0.1758
     41 H12         9.1629   12.5822   19.9826 H       1  <0>1        0.1512
     42 H13         7.2190   14.8072   16.3393 H       1  <0>1        0.1470
     43 H14         5.5667   16.5014   17.0927 H       1  <0>1        0.1426
     44 H15         5.1616   16.8046   19.5007 H       1  <0>1        0.1621
     45 H16         7.9145   13.8534   20.4637 H       1  <0>1        0.1626
@<TRIPOS>BOND
     1     1     6   ar
     2     1     2   ar
     3     1    30    1
     4     2     3   ar
     5     2    31    1
     6     3     4   ar
     7     3    32    1
     8     4     5   ar
     9     4     7    1
    10     5     6   ar
    11     5    33    1
    12     6    34    1
    13     7     8    2
    14     7     9   am
    15     9    10    1
    16     9    35    1
    17    10    15   ar
    18    10    11   ar
    19    11    12   ar
    20    11    36    1
    21    12    13   ar
    22    12    37    1
    23    13    14   ar
    24    13    29    1
    25    14    15   ar
    26    14    16    1
    27    15    38    1
    28    16    17    1
    29    16    39    1
    30    17    22   ar
    31    17    18   ar
    32    18    19   ar
    33    19    20   ar
    34    19    40    1
    35    20    21   ar
    36    20    41    1
    37    21    22   ar
    38    21    23    1
    39    23    28   ar
    40    23    24   ar
    41    24    25   ar
    42    24    42    1
    43    25    26   ar
    44    25    43    1
    45    26    27   ar
    46    26    44    1
    47    27    28   ar
    48    28    45    1
@<TRIPOS>MOLECULE
ZINC03832234
 44 46 0 0 0
SMALL
USER_CHARGES

@<TRIPOS>ATOM
      1 C1         14.2662    7.4638   11.6028 C.3     1  <0>1       -0.1537
      2 C2         13.5797    8.7705   11.2000 C.3     1  <0>1        0.0627
      3 O1         12.7998    9.2719   12.3175 O.3     1  <0>1       -0.3544
      4 C3         12.1278   10.4241   12.1263 C.2     1  <0>1        0.5089
      5 O2         12.1918   10.9941   11.0553 O.2     1  <0>1       -0.5042
      6 C4         11.3191   10.9966   13.2198 C.ar    1  <0>1       -0.1278
      7 C5         11.2404   10.3382   14.4503 C.ar    1  <0>1       -0.0544
      8 C6         10.4902   10.8760   15.4711 C.ar    1  <0>1       -0.1266
      9 C7          9.7991   12.0723   15.2744 C.ar    1  <0>1        0.0000
     10 C8          9.8725   12.7278   14.0446 C.ar    1  <0>1       -0.1229
     11 C9         10.6264   12.1948   13.0240 C.ar    1  <0>1       -0.0464
     12 C10         8.9869   12.6474   16.3726 C.ar    1  <0>1       -0.1138
     13 C11         8.9051   11.9968   17.5970 C.ar    1  <0>1       -0.0403
     14 C12         8.1268   12.5863   18.6063 C.ar    1  <0>1       -0.0900
     15 C13         8.0025   11.9867   19.8719 C.ar    1  <0>1       -0.1729
     16 C14         7.2333   12.5818   20.8281 C.ar    1  <0>1        0.1263
     17 C15         6.5655   13.7873   20.5619 C.ar    1  <0>1        0.1439
     18 C16         6.6682   14.3914   19.3425 C.ar    1  <0>1       -0.1731
     19 C17         7.4521   13.8045   18.3351 C.ar    1  <0>1        0.1445
     20 N1          7.5649   14.3812   17.1334 N.ar    1  <0>1       -0.4683
     21 C18         8.2898   13.8506   16.1812 C.ar    1  <0>1        0.1442
     22 O3          5.8056   14.3603   21.5315 O.3     1  <0>1       -0.3001
     23 C19         5.1494   15.5862   21.2018 C.3     1  <0>1        0.0211
     24 O4          7.1128   12.0018   22.0517 O.3     1  <0>1       -0.3011
     25 C20         7.8170   10.7761   22.2609 C.3     1  <0>1        0.0222
     26 H1         14.9242    7.6460   12.4524 H       1  <0>1        0.0675
     27 H2         13.5118    6.7271   11.8790 H       1  <0>1        0.0675
     28 H3         14.8516    7.0874   10.7640 H       1  <0>1        0.0821
     29 H4         12.9217    8.5883   10.3504 H       1  <0>1        0.0721
     30 H5         14.3341    9.5072   10.9239 H       1  <0>1        0.0721
     31 H6         11.7716    9.4101   14.6013 H       1  <0>1        0.1421
     32 H7         10.4326   10.3696   16.4232 H       1  <0>1        0.1344
     33 H8          9.3372   13.6536   13.8936 H       1  <0>1        0.1391
     34 H9         10.6825   12.7019   12.0721 H       1  <0>1        0.1427
     35 H10         9.4277   11.0675   17.7690 H       1  <0>1        0.1434
     36 H11         8.5135   11.0595   20.0857 H       1  <0>1        0.1465
     37 H12         6.1477   15.3184   19.1523 H       1  <0>1        0.1523
     38 H13         8.3526   14.3501   15.2257 H       1  <0>1        0.1634
     39 H14         4.5780   15.9351   22.0620 H       1  <0>1        0.1063
     40 H15         5.8936   16.3354   20.9318 H       1  <0>1        0.0607
     41 H16         4.4762   15.4230   20.3603 H       1  <0>1        0.0607
     42 H17         7.4674   10.0299   21.5474 H       1  <0>1        0.0587
     43 H18         8.8850   10.9418   22.1192 H       1  <0>1        0.0587
     44 H19         7.6358   10.4215   23.2755 H       1  <0>1        0.1057
@<TRIPOS>BOND
     1     1     2    1
     2     1    26    1
     3     1    27    1
     4     1    28    1
     5     2     3    1
     6     2    29    1
     7     2    30    1
     8     3     4    1
     9     4     5    2
    10     4     6    1
    11     6    11   ar
    12     6     7   ar
    13     7     8   ar
    14     7    31    1
    15     8     9   ar
    16     8    32    1
    17     9    10   ar
    18     9    12    1
    19    10    11   ar
    20    10    33    1
    21    11    34    1
    22    12    21   ar
    23    12    13   ar
    24    13    14   ar
    25    13    35    1
    26    14    19   ar
    27    14    15   ar
    28    15    16   ar
    29    15    36    1
    30    16    17   ar
    31    16    24    1
    32    17    18   ar
    33    17    22    1
    34    18    19   ar
    35    18    37    1
    36    19    20   ar
    37    20    21   ar
    38    21    38    1
    39    22    23    1
    40    23    39    1
    41    23    40    1
    42    23    41    1
    43    24    25    1
    44    25    42    1
    45    25    43    1
    46    25    44    1
@<TRIPOS>MOLECULE
ZINC03832235
 31 33 0 0 0
SMALL
USER_CHARGES

@<TRIPOS>ATOM
      1 C1         11.3136   11.0076   13.2146 C.ar    1  <0>1       -0.1166
      2 C2         10.6274   12.1939   13.0232 C.ar    1  <0>1       -0.1193
      3 C3          9.8713   12.7297   14.0447 C.ar    1  <0>1       -0.1054
      4 C4          9.7993   12.0715   15.2752 C.ar    1  <0>1       -0.0614
      5 C5         10.4997   10.8769   15.4630 C.ar    1  <0>1       -0.1120
      6 C6         11.2468   10.3499   14.4303 C.ar    1  <0>1       -0.1191
      7 C7          8.9935   12.6375   16.3717 C.2     1  <0>1       -0.0973
      8 C8          8.9266   12.0023   17.5530 C.2     1  <0>1       -0.1069
      9 C9          8.1210   12.5682   18.6490 C.ar    1  <0>1       -0.1094
     10 C10         8.0514   11.9176   19.8773 C.ar    1  <0>1       -0.0488
     11 C11         7.2653   12.4980   20.8862 C.ar    1  <0>1       -0.0992
     12 C12         7.1437   11.8968   22.1510 C.ar    1  <0>1       -0.0974
     13 C13         6.3736   12.4875   23.1055 C.ar    1  <0>1       -0.1142
     14 C14         5.7038   13.6813   22.8449 C.ar    1  <0>1       -0.1001
     15 C15         5.7990   14.2906   21.6314 C.ar    1  <0>1       -0.0928
     16 C16         6.5844   13.7129   20.6192 C.ar    1  <0>1        0.1238
     17 N1          6.6930   14.2954   19.4197 N.ar    1  <0>1       -0.4710
     18 C17         7.4192   13.7742   18.4647 C.ar    1  <0>1        0.1398
     19 H1         11.9042   10.5927   12.4111 H       1  <0>1        0.1232
     20 H2         10.6843   12.7016   12.0717 H       1  <0>1        0.1249
     21 H3          9.3359   13.6555   13.8937 H       1  <0>1        0.1259
     22 H4         10.4523   10.3650   16.4129 H       1  <0>1        0.1248
     23 H5         11.7847    9.4243   14.5723 H       1  <0>1        0.1242
     24 H6          8.4568   13.5632   16.2252 H       1  <0>1        0.1253
     25 H7          9.4633   11.0767   17.6995 H       1  <0>1        0.1270
     26 H8          8.5824   10.9927   20.0481 H       1  <0>1        0.1421
     27 H9          7.6579   10.9712   22.3641 H       1  <0>1        0.1314
     28 H10         6.2808   12.0252   24.0772 H       1  <0>1        0.1296
     29 H11         5.0991   14.1308   23.6188 H       1  <0>1        0.1316
     30 H12         5.2728   15.2155   21.4471 H       1  <0>1        0.1365
     31 H13         7.4780   14.2785   17.5115 H       1  <0>1        0.1610
@<TRIPOS>BOND
     1     1     6   ar
     2     1     2   ar
     3     1    19    1
     4     2     3   ar
     5     2    20    1
     6     3     4   ar
     7     3    21    1
     8     4     5   ar
     9     4     7    1
    10     5     6   ar
    11     5    22    1
    12     6    23    1
    13     7     8    2
    14     7    24    1
    15     8     9    1
    16     8    25    1
    17     9    18   ar
    18     9    10   ar
    19    10    11   ar
    20    10    26    1
    21    11    16   ar
    22    11    12   ar
    23    12    13   ar
    24    12    27    1
    25    13    14   ar
    26    13    28    1
    27    14    15   ar
    28    14    29    1
    29    15    16   ar
    30    15    30    1
    31    16    17   ar
    32    17    18   ar
    33    18    31    1
@<TRIPOS>MOLECULE
ZINC03832236
 36 38 0 0 0
SMALL
USER_CHARGES

@<TRIPOS>ATOM
      1 C1         11.7414    8.0676   14.8212 C.3     1  <0>1        0.0190
      2 O1         11.5890    9.0817   13.8260 O.3     1  <0>1       -0.2602
      3 C2         10.9592   10.2247   14.2017 C.ar    1  <0>1        0.0642
      4 C3         10.6852   11.3360   13.4607 C.ar    1  <0>1       -0.2068
      5 C4         10.0222   12.3880   14.0548 C.ar    1  <0>1       -0.0983
      6 C5          9.6714   12.2854   15.3740 C.ar    1  <0>1       -0.1296
      7 S1         10.2763   10.6589   15.7929 S.2     1  <0>1        0.0308
      8 C6          8.9687   13.2645   16.2279 C.ar    1  <0>1       -0.0499
      9 C7          8.7011   12.9681   17.5602 C.ar    1  <0>1       -0.0537
     10 C8          8.0251   13.9311   18.3267 C.ar    1  <0>1       -0.0820
     11 C9          7.7159   13.6977   19.6782 C.ar    1  <0>1       -0.1749
     12 C10         7.0578   14.6535   20.3951 C.ar    1  <0>1        0.1278
     13 C11         6.6872   15.8681   19.7975 C.ar    1  <0>1        0.1404
     14 C12         6.9744   16.1217   18.4880 C.ar    1  <0>1       -0.1697
     15 C13         7.6510   15.1581   17.7209 C.ar    1  <0>1        0.1384
     16 N1          7.9409   15.3888   16.4354 N.ar    1  <0>1       -0.4634
     17 C14         8.5697   14.5056   15.7022 C.ar    1  <0>1        0.1482
     18 O2          6.0327   16.8045   20.5334 O.3     1  <0>1       -0.3007
     19 C15         5.6808   18.0208   19.8708 C.3     1  <0>1        0.0213
     20 O3          6.7584   14.4276   21.7018 O.3     1  <0>1       -0.3010
     21 C16         7.1621   13.1722   22.2522 C.3     1  <0>1        0.0223
     22 H1         12.3223    8.4615   15.6552 H       1  <0>1        0.0631
     23 H2         10.7591    7.7573   15.1771 H       1  <0>1        0.0631
     24 H3         12.2592    7.2106   14.3904 H       1  <0>1        0.1143
     25 H4         10.9787   11.3889   12.4227 H       1  <0>1        0.1448
     26 H5          9.7866   13.2784   13.4909 H       1  <0>1        0.1449
     27 H6          9.0003   12.0240   17.9911 H       1  <0>1        0.1373
     28 H7          7.9972   12.7659   20.1463 H       1  <0>1        0.1456
     29 H8          6.6821   17.0608   18.0420 H       1  <0>1        0.1522
     30 H9          8.7828   14.7338   14.6684 H       1  <0>1        0.1635
     31 H10         5.1648   18.6791   20.5697 H       1  <0>1        0.1058
     32 H11         6.5841   18.5116   19.5086 H       1  <0>1        0.0605
     33 H12         5.0252   17.7991   19.0287 H       1  <0>1        0.0604
     34 H13         6.8628   13.1214   23.2990 H       1  <0>1        0.1056
     35 H14         6.6863   12.3628   21.6985 H       1  <0>1        0.0585
     36 H15         8.2453   13.0749   22.1789 H       1  <0>1        0.0585
@<TRIPOS>BOND
     1     1     2    1
     2     1    22    1
     3     1    23    1
     4     1    24    1
     5     2     3    1
     6     3     7   ar
     7     3     4   ar
     8     4     5   ar
     9     4    25    1
    10     5     6   ar
    11     5    26    1
    12     6     7   ar
    13     6     8    1
    14     8    17   ar
    15     8     9   ar
    16     9    10   ar
    17     9    27    1
    18    10    15   ar
    19    10    11   ar
    20    11    12   ar
    21    11    28    1
    22    12    13   ar
    23    12    20    1
    24    13    14   ar
    25    13    18    1
    26    14    15   ar
    27    14    29    1
    28    15    16   ar
    29    16    17   ar
    30    17    30    1
    31    18    19    1
    32    19    31    1
    33    19    32    1
    34    19    33    1
    35    20    21    1
    36    21    34    1
    37    21    35    1
    38    21    36    1
@<TRIPOS>MOLECULE
ZINC03832237
 49 52 0 0 0
SMALL
USER_CHARGES

@<TRIPOS>ATOM
      1 C1          9.1730   15.3702   18.8017 C.ar    1  <0>1       -0.1099
      2 C2          9.1319   15.6097   17.4405 C.ar    1  <0>1       -0.0978
      3 C3          9.1674   14.5540   16.5506 C.ar    1  <0>1       -0.1158
      4 C4          9.2447   13.2511   17.0242 C.ar    1  <0>1        0.1165
      5 C5          9.2802   13.0135   18.3918 C.ar    1  <0>1       -0.1176
      6 C6          9.2505   14.0737   19.2764 C.ar    1  <0>1       -0.1002
      7 N1          9.2809   12.1780   16.1241 N.ar    1  <0>1       -0.4433
      8 C7          8.4285   11.9678   15.0823 C.ar    1  <0>1        0.2863
      9 N2          8.7551   10.8780   14.4507 N.ar    1  <0>1       -0.4906
     10 C8          9.8391   10.3127   15.0421 C.ar    1  <0>1        0.0896
     11 C9         10.1933   11.1368   16.1238 C.ar    1  <0>1        0.0230
     12 C10        11.2778   10.8060   16.9231 C.ar    1  <0>1       -0.0617
     13 C11        12.0078    9.6680   16.6543 C.ar    1  <0>1       -0.1827
     14 C12        11.6637    8.8469   15.5846 C.ar    1  <0>1        0.1136
     15 C13        10.5868    9.1619   14.7798 C.ar    1  <0>1       -0.0963
     16 O1         12.3923    7.7272   15.3305 O.3     1  <0>1       -0.3110
     17 C14        13.4935    7.4586   16.2006 C.3     1  <0>1        0.0638
     18 C15        14.1876    6.1678   15.7612 C.3     1  <0>1       -0.1521
     19 C16        15.3668    5.8802   16.6928 C.3     1  <0>1       -0.0006
     20 C17        15.1535    3.4785   16.4616 C.3     1  <0>1       -0.0442
     21 C18        15.8629    2.2198   15.9552 C.3     1  <0>1        0.0349
     22 O2         17.1099    2.0734   16.6399 O.3     1  <0>1       -0.3566
     23 C19        17.9916    3.1874   16.4751 C.3     1  <0>1        0.0343
     24 C20        17.3037    4.4558   16.9869 C.3     1  <0>1       -0.0383
     25 H1          9.1452   16.1974   19.4956 H       1  <0>1        0.1339
     26 H2          9.0720   16.6235   17.0727 H       1  <0>1        0.1370
     27 H3          9.1355   14.7419   15.4875 H       1  <0>1        0.1328
     28 H4          9.3357   12.0009   18.7632 H       1  <0>1        0.1280
     29 H5          9.2825   13.8898   20.3402 H       1  <0>1        0.1348
     30 H6          7.6023   12.6117   14.8192 H       1  <0>1        0.2207
     31 H7         11.5496   11.4389   17.7549 H       1  <0>1        0.1296
     32 H8         12.8516    9.4118   17.2778 H       1  <0>1        0.1339
     33 H9         10.3237    8.5217   13.9508 H       1  <0>1        0.1414
     34 H10        14.2022    8.2856   16.1557 H       1  <0>1        0.0727
     35 H11        13.1305    7.3462   17.2222 H       1  <0>1        0.0725
     36 H12        13.4789    5.3409   15.8060 H       1  <0>1        0.0992
     37 H13        14.5507    6.2802   14.7396 H       1  <0>1        0.0999
     38 H14        16.0754    6.7072   16.6479 H       1  <0>1        0.1355
     39 H15        15.0037    5.7678   17.7143 H       1  <0>1        0.1362
     40 H16        14.9243    3.3656   17.5213 H       1  <0>1        0.1415
     41 H17        14.2296    3.6254   15.9023 H       1  <0>1        0.1429
     42 H18        16.0443    2.3103   14.8842 H       1  <0>1        0.0818
     43 H19        15.2379    1.3477   16.1468 H       1  <0>1        0.1424
     44 H20        18.2349    3.3060   15.4193 H       1  <0>1        0.0816
     45 H21        18.9060    3.0150   17.0428 H       1  <0>1        0.1423
     46 H22        17.9494    5.3162   16.8110 H       1  <0>1        0.1419
     47 H23        17.1087    4.3586   18.0549 H       1  <0>1        0.1410
     48 N3         16.0395    4.6418   16.2444 N.4     1  <0>1       -0.3952
     49 H24        16.2489    4.7198   15.2423 H       1  <0>1        0.4284
@<TRIPOS>BOND
     1     1     6   ar
     2     1     2   ar
     3     1    25    1
     4     2     3   ar
     5     2    26    1
     6     3     4   ar
     7     3    27    1
     8     4     5   ar
     9     4     7    1
    10     5     6   ar
    11     5    28    1
    12     6    29    1
    13     7    11   ar
    14     7     8   ar
    15     8     9   ar
    16     8    30    1
    17     9    10   ar
    18    10    15   ar
    19    10    11   ar
    20    11    12   ar
    21    12    13   ar
    22    12    31    1
    23    13    14   ar
    24    13    32    1
    25    14    15   ar
    26    14    16    1
    27    15    33    1
    28    16    17    1
    29    17    18    1
    30    17    34    1
    31    17    35    1
    32    18    19    1
    33    18    36    1
    34    18    37    1
    35    19    38    1
    36    19    39    1
    37    19    48    1
    38    20    21    1
    39    20    40    1
    40    20    41    1
    41    20    48    1
    42    21    22    1
    43    21    42    1
    44    21    43    1
    45    22    23    1
    46    23    24    1
    47    23    44    1
    48    23    45    1
    49    24    46    1
    50    24    47    1
    51    24    48    1
    52    48    49    1
@<TRIPOS>MOLECULE
ZINC03832238
 44 47 0 0 0
SMALL
USER_CHARGES

@<TRIPOS>ATOM
      1 C1          9.9189   13.7906   14.6482 C.3     1  <0>1       -0.1623
      2 C2         10.0135   13.1634   16.0405 C.3     1  <0>1        0.0969
      3 N1          9.0583   12.0575   16.1437 N.ar    1  <0>1       -0.5042
      4 C3          9.4475   10.7891   15.7946 C.ar    1  <0>1        0.4632
      5 C4          8.5411    9.7113   15.8937 C.ar    1  <0>1       -0.2762
      6 C5          7.2229    9.9307   16.3543 C.ar    1  <0>1        0.0123
      7 C6          6.8433   11.1998   16.7004 C.ar    1  <0>1       -0.1542
      8 C7          7.8083   12.2954   16.5858 C.ar    1  <0>1        0.5491
      9 O1          7.4790   13.4275   16.8916 O.2     1  <0>1       -0.5032
     10 C8          5.4686   11.4626   17.1866 C.ar    1  <0>1       -0.0309
     11 C9          4.6054   12.2676   16.4440 C.ar    1  <0>1       -0.0891
     12 C10         3.3242   12.5038   16.8991 C.ar    1  <0>1       -0.1193
     13 C11         2.8997   11.9538   18.0953 C.ar    1  <0>1       -0.1141
     14 C12         3.7532   11.1586   18.8389 C.ar    1  <0>1       -0.1204
     15 C13         5.0347   10.9104   18.3914 C.ar    1  <0>1       -0.1026
     16 C14         8.9794    8.4300   15.5271 C.ar    1  <0>1        0.2602
     17 N2         10.2212    8.2839   15.1044 N.ar    1  <0>1       -0.5675
     18 C15        11.0468    9.3216   15.0240 C.ar    1  <0>1        0.6061
     19 N3         10.6790   10.5489   15.3586 N.ar    1  <0>1       -0.5948
     20 N4         12.3366    9.1125   14.5749 N.pl3   1  <0>1       -0.6270
     21 C16        12.7878    7.8131   14.3251 C.ar    1  <0>1        0.1551
     22 C17        12.3388    6.7578   15.1088 C.ar    1  <0>1       -0.1099
     23 C18        12.7822    5.4745   14.8556 C.ar    1  <0>1       -0.1006
     24 C19        13.6805    5.2412   13.8305 C.ar    1  <0>1       -0.1331
     25 C20        14.1341    6.2906   13.0524 C.ar    1  <0>1       -0.0995
     26 C21        13.6904    7.5754   13.2964 C.ar    1  <0>1       -0.1441
     27 H1         10.6297   14.6135   14.5714 H       1  <0>1        0.0769
     28 H2         10.1510   13.0385   13.8942 H       1  <0>1        0.0595
     29 H3          8.9087   14.1669   14.4870 H       1  <0>1        0.0602
     30 H4          9.7814   13.9156   16.7944 H       1  <0>1        0.0976
     31 H5         11.0237   12.7872   16.2016 H       1  <0>1        0.1002
     32 H6          6.5255    9.1097   16.4317 H       1  <0>1        0.1506
     33 H7          4.9373   12.7015   15.5124 H       1  <0>1        0.1199
     34 H8          2.6533   13.1235   16.3227 H       1  <0>1        0.1245
     35 H9          1.8977   12.1454   18.4498 H       1  <0>1        0.1232
     36 H10         3.4160   10.7315   19.7719 H       1  <0>1        0.1250
     37 H11         5.7001   10.2895   18.9728 H       1  <0>1        0.1231
     38 H12         8.3146    7.5811   15.5890 H       1  <0>1        0.1874
     39 H13        12.9290    9.8674   14.4328 H       1  <0>1        0.4260
     40 H14        11.6407    6.9400   15.9124 H       1  <0>1        0.1340
     41 H15        12.4303    4.6529   15.4620 H       1  <0>1        0.1261
     42 H16        14.0287    4.2374   13.6373 H       1  <0>1        0.1238
     43 H17        14.8360    6.1050   12.2527 H       1  <0>1        0.1269
     44 H18        14.0451    8.3945   12.6885 H       1  <0>1        0.1249
@<TRIPOS>BOND
     1     1     2    1
     2     1    27    1
     3     1    28    1
     4     1    29    1
     5     2     3    1
     6     2    30    1
     7     2    31    1
     8     3     8   ar
     9     3     4   ar
    10     4    19   ar
    11     4     5   ar
    12     5     6   ar
    13     5    16   ar
    14     6     7   ar
    15     6    32    1
    16     7     8   ar
    17     7    10    1
    18     8     9    2
    19    10    15   ar
    20    10    11   ar
    21    11    12   ar
    22    11    33    1
    23    12    13   ar
    24    12    34    1
    25    13    14   ar
    26    13    35    1
    27    14    15   ar
    28    14    36    1
    29    15    37    1
    30    16    17   ar
    31    16    38    1
    32    17    18   ar
    33    18    19   ar
    34    18    20    1
    35    20    21    1
    36    20    39    1
    37    21    26   ar
    38    21    22   ar
    39    22    23   ar
    40    22    40    1
    41    23    24   ar
    42    23    41    1
    43    24    25   ar
    44    24    42    1
    45    25    26   ar
    46    25    43    1
    47    26    44    1
@<TRIPOS>MOLECULE
ZINC03832239
 57 60 0 0 0
SMALL
USER_CHARGES

@<TRIPOS>ATOM
      1 C1         12.3162   16.4453   21.7363 C.3     1  <0>1       -0.0462
      2 C2         12.6011   16.9242   19.3795 C.3     1  <0>1       -0.0255
      3 C3         11.8956   16.9043   18.0214 C.3     1  <0>1       -0.0260
      4 C4         10.6115   14.9740   18.7169 C.3     1  <0>1       -0.0371
      5 C5         11.3170   14.9939   20.0749 C.3     1  <0>1       -0.0223
      6 C6         10.8964   15.4529   16.3601 C.3     1  <0>1       -0.0263
      7 C7         10.7399   14.0095   15.9563 C.2     1  <0>1        0.4940
      8 O1         11.1039   13.1275   16.7050 O.2     1  <0>1       -0.5185
      9 N1         10.1955   13.6987   14.7632 N.am    1  <0>1       -0.6282
     10 C8         10.1415   12.3646   14.3450 C.ar    1  <0>1        0.1277
     11 C9          9.0812   11.9232   13.5630 C.ar    1  <0>1       -0.1459
     12 C10         9.0295   10.6074   13.1457 C.ar    1  <0>1       -0.0728
     13 C11        10.0259    9.7234   13.5129 C.ar    1  <0>1       -0.1070
     14 C12        11.0861   10.1570   14.2991 C.ar    1  <0>1        0.1947
     15 C13        11.1435   11.4798   14.7155 C.ar    1  <0>1       -0.1483
     16 N2         12.0938    9.2619   14.6706 N.pl3   1  <0>1       -0.6407
     17 C14        11.7860    7.9322   14.9083 C.ar    1  <0>1        0.5584
     18 N3         10.5178    7.5482   14.8811 N.ar    1  <0>1       -0.5596
     19 C15        10.1830    6.2870   15.1025 C.ar    1  <0>1        0.1957
     20 C16        11.1756    5.3594   15.3658 C.ar    1  <0>1       -0.2599
     21 C17        12.5035    5.7937   15.3880 C.ar    1  <0>1        0.2713
     22 N4         12.7665    7.0770   15.1513 N.ar    1  <0>1       -0.5575
     23 C18        13.6035    4.8384   15.6655 C.ar    1  <0>1       -0.1258
     24 C19        14.9324    5.2722   15.6878 C.ar    1  <0>1       -0.0273
     25 C20        15.9223    4.3415   15.9514 C.ar    1  <0>1       -0.1789
     26 C21        15.5685    3.0244   16.1823 C.ar    1  <0>1        0.1244
     27 N5         14.3057    2.6447   16.1546 N.ar    1  <0>1       -0.4813
     28 C22        13.3289    3.4951   15.9138 C.ar    1  <0>1        0.1376
     29 H1         12.5303   17.4854   21.9821 H       1  <0>1        0.1363
     30 H2         11.6301   16.0312   22.4751 H       1  <0>1        0.1363
     31 H3         13.2436   15.8726   21.7405 H       1  <0>1        0.1328
     32 H4         13.5069   16.3203   19.3277 H       1  <0>1        0.1565
     33 H5         12.8625   17.9503   19.6385 H       1  <0>1        0.1779
     34 H6         12.5707   17.2855   17.2553 H       1  <0>1        0.1771
     35 H7         11.0044   17.5303   18.0650 H       1  <0>1        0.1597
     36 H8          9.7057   15.5780   18.7688 H       1  <0>1        0.1561
     37 H9         10.3504   13.9479   18.4578 H       1  <0>1        0.1859
     38 H10        12.2082   14.3679   20.0310 H       1  <0>1        0.1573
     39 H11        10.6419   14.6127   20.8411 H       1  <0>1        0.1762
     40 H12        11.5331   15.9651   15.6387 H       1  <0>1        0.1743
     41 H13         9.9174   15.9315   16.3848 H       1  <0>1        0.1722
     42 H14         9.8376   14.3996   14.1961 H       1  <0>1        0.4235
     43 H15         8.2985   12.6107   13.2779 H       1  <0>1        0.1318
     44 H16         8.2062   10.2677   12.5347 H       1  <0>1        0.1405
     45 H17         9.9807    8.6943   13.1882 H       1  <0>1        0.1440
     46 H18        11.9668   11.8195   15.3265 H       1  <0>1        0.1330
     47 H19        13.0084    9.5719   14.7622 H       1  <0>1        0.4234
     48 H20         9.1464    5.9851   15.0783 H       1  <0>1        0.1793
     49 H21        10.9297    4.3241   15.5503 H       1  <0>1        0.1557
     50 H22        15.1803    6.3071   15.5036 H       1  <0>1        0.1441
     51 H23        16.9598    4.6405   15.9770 H       1  <0>1        0.1439
     52 H24        16.3383    2.2956   16.3887 H       1  <0>1        0.1654
     53 H25        12.3066    3.1472   15.9041 H       1  <0>1        0.1633
     54 N6         11.6792   16.3889   20.4032 N.4     1  <0>1       -0.4069
     55 H26        10.8267   16.9609   20.4164 H       1  <0>1        0.4400
     56 N7         11.5335   15.5095   17.6931 N.4     1  <0>1       -0.3932
     57 H27        12.3862   14.9376   17.6799 H       1  <0>1        0.4447
@<TRIPOS>BOND
     1     1    29    1
     2     1    30    1
     3     1    31    1
     4     1    54    1
     5     2     3    1
     6     2    32    1
     7     2    33    1
     8     2    54    1
     9     3    34    1
    10     3    35    1
    11     3    56    1
    12     4     5    1
    13     4    36    1
    14     4    37    1
    15     4    56    1
    16     5    38    1
    17     5    39    1
    18     5    54    1
    19     6     7    1
    20     6    40    1
    21     6    41    1
    22     6    56    1
    23     7     8    2
    24     7     9   am
    25     9    10    1
    26     9    42    1
    27    10    15   ar
    28    10    11   ar
    29    11    12   ar
    30    11    43    1
    31    12    13   ar
    32    12    44    1
    33    13    14   ar
    34    13    45    1
    35    14    15   ar
    36    14    16    1
    37    15    46    1
    38    16    17    1
    39    16    47    1
    40    17    22   ar
    41    17    18   ar
    42    18    19   ar
    43    19    20   ar
    44    19    48    1
    45    20    21   ar
    46    20    49    1
    47    21    22   ar
    48    21    23    1
    49    23    28   ar
    50    23    24   ar
    51    24    25   ar
    52    24    50    1
    53    25    26   ar
    54    25    51    1
    55    26    27   ar
    56    26    52    1
    57    27    28   ar
    58    28    53    1
    59    54    55    1
    60    56    57    1
@<TRIPOS>MOLECULE
ZINC03832240
 24 26 0 0 0
SMALL
USER_CHARGES

@<TRIPOS>ATOM
      1 C1          7.2906   12.4839   20.8438 C.ar    1  <0>1       -0.1132
      2 C2          6.6178   13.6808   20.6050 C.ar    1  <0>1       -0.1006
      3 C3          6.7019   14.3057   19.3990 C.ar    1  <0>1       -0.0919
      4 C4          7.4787   13.7410   18.3722 C.ar    1  <0>1        0.1228
      5 C5          8.1626   12.5237   18.6174 C.ar    1  <0>1       -0.0963
      6 C6          8.0525   11.9062   19.8749 C.ar    1  <0>1       -0.0980
      7 C7          8.9399   11.9571   17.5926 C.ar    1  <0>1       -0.0527
      8 C8          9.0007   12.6239   16.3776 C.ar    1  <0>1       -0.0807
      9 C9          8.2944   13.8259   16.2119 C.ar    1  <0>1        0.1424
     10 N1          7.5803   14.3399   17.1809 N.ar    1  <0>1       -0.4692
     11 C10         9.8056   12.0704   15.2612 C.ar    1  <0>1       -0.0795
     12 C11         9.8739   12.7300   14.0376 C.ar    1  <0>1       -0.1528
     13 C12        10.6184   12.1946   13.0442 C.ar    1  <0>1       -0.1654
     14 S1         11.2622   10.7159   13.8086 S.2     1  <0>1        0.0551
     15 C13        10.5020   10.9038   15.4126 C.ar    1  <0>1       -0.1676
     16 H1          7.2064   12.0088   21.8100 H       1  <0>1        0.1296
     17 H2          6.0194   14.1194   21.3898 H       1  <0>1        0.1317
     18 H3          6.1733   15.2324   19.2310 H       1  <0>1        0.1367
     19 H4          8.5698   10.9788   20.0717 H       1  <0>1        0.1312
     20 H5          9.4739   11.0311   17.7464 H       1  <0>1        0.1402
     21 H6          8.3452   14.3409   15.2640 H       1  <0>1        0.1609
     22 H7          9.3402   13.6563   13.8840 H       1  <0>1        0.1396
     23 H8         10.7822   12.5668   12.0437 H       1  <0>1        0.1902
     24 H9         10.5728   10.2615   16.2781 H       1  <0>1        0.1875
@<TRIPOS>BOND
     1     1     6   ar
     2     1     2   ar
     3     1    16    1
     4     2     3   ar
     5     2    17    1
     6     3     4   ar
     7     3    18    1
     8     4    10   ar
     9     4     5   ar
    10     5     6   ar
    11     5     7   ar
    12     6    19    1
    13     7     8   ar
    14     7    20    1
    15     8     9   ar
    16     8    11    1
    17     9    10   ar
    18     9    21    1
    19    11    15   ar
    20    11    12   ar
    21    12    13   ar
    22    12    22    1
    23    13    14   ar
    24    13    23    1
    25    14    15   ar
    26    15    24    1
@<TRIPOS>MOLECULE
ZINC03832241
 42 44 0 0 0
SMALL
USER_CHARGES

@<TRIPOS>ATOM
      1 C1          3.4650   17.3362   19.0966 C.3     1  <0>1        0.0789
      2 O1          4.3639   16.6141   19.9408 O.3     1  <0>1       -0.4928
      3 C2          5.3456   15.9008   19.3294 C.ar    1  <0>1        0.1500
      4 C3          5.4395   15.8975   17.9441 C.ar    1  <0>1       -0.0171
      5 C4          6.4346   15.1745   17.3208 C.ar    1  <0>1       -0.0504
      6 C5          7.3469   14.4463   18.0831 C.ar    1  <0>1       -0.0140
      7 C6          7.2466   14.4470   19.4733 C.ar    1  <0>1       -0.0202
      8 C7          6.2522   15.1763   20.0910 C.ar    1  <0>1        0.1635
      9 N1          6.1487   15.1824   21.5677 N.4     1  <0>1        0.0096
     10 O2          6.9438   14.5470   22.2366 O.2     1  <0>1       -0.1299
     11 O3          5.2682   15.8229   22.1138 O.2     1  <0>1       -0.3960
     12 C8          8.4185   13.6676   17.4157 C.ar    1  <0>1        0.0009
     13 C9          8.5223   13.6650   16.0317 C.ar    1  <0>1       -0.0433
     14 C10         9.5505   12.9060   15.4485 C.ar    1  <0>1        0.0046
     15 C11         9.7111   12.8505   14.0530 C.ar    1  <0>1       -0.0071
     16 C12        10.7199   12.1039   13.5189 C.ar    1  <0>1        0.1622
     17 C13        11.5990   11.3903   14.3483 C.ar    1  <0>1        0.1635
     18 C14        11.4666   11.4260   15.7058 C.ar    1  <0>1        0.0097
     19 C15        10.4379   12.1856   16.2884 C.ar    1  <0>1        0.0747
     20 N2         10.2910   12.2326   17.6170 N.ar    1  <0>1       -0.2543
     21 C16         9.3387   12.9335   18.1793 C.ar    1  <0>1        0.0360
     22 O4         12.5957   10.6534   13.7914 O.3     1  <0>1       -0.4914
     23 C17        13.4588    9.9485   14.6860 C.3     1  <0>1        0.0790
     24 O5         10.8756   12.0506   12.1695 O.3     1  <0>1       -0.4914
     25 C18         9.9489   12.7985   11.3796 C.3     1  <0>1        0.0790
     26 H1          2.7325   17.8607   19.7102 H       1  <0>1        0.0660
     27 H2          4.0251   18.0582   18.5026 H       1  <0>1        0.0660
     28 H3          2.9515   16.6402   18.4332 H       1  <0>1        0.0660
     29 H4          4.7322   16.4615   17.3541 H       1  <0>1        0.0655
     30 H5          6.5068   15.1721   16.2433 H       1  <0>1        0.0625
     31 H6          7.9492   13.8802   20.0662 H       1  <0>1        0.0647
     32 H7          7.8297   14.2253   15.4210 H       1  <0>1        0.0631
     33 H8          9.0395   13.3966   13.4073 H       1  <0>1        0.0662
     34 H9         12.1507   10.8713   16.3311 H       1  <0>1        0.0677
     35 H10         9.2568   12.9432   19.2562 H       1  <0>1        0.0836
     36 H11        14.2079    9.4021   14.1131 H       1  <0>1        0.0660
     37 H12        13.9544   10.6586   15.3480 H       1  <0>1        0.0660
     38 H13        12.8723    9.2470   15.2794 H       1  <0>1        0.0660
     39 H14         8.9370   12.4421   11.5719 H       1  <0>1        0.0660
     40 H15        10.0181   13.8545   11.6409 H       1  <0>1        0.0660
     41 H16        10.1850   12.6694   10.3232 H       1  <0>1        0.0660
     42 H           4.6565   16.3117   21.5992 H       1  <0>1        0.3292
@<TRIPOS>BOND
     1     1     2    1
     2     1    26    1
     3     1    27    1
     4     1    28    1
     5     2     3    1
     6     3     8   ar
     7     3     4   ar
     8     4     5   ar
     9     4    29    1
    10     5     6   ar
    11     5    30    1
    12     6     7   ar
    13     6    12    1
    14     7     8   ar
    15     7    31    1
    16     8     9    1
    17     9    10    2
    18     9    11    1
    19    12    21   ar
    20    12    13   ar
    21    13    14   ar
    22    13    32    1
    23    14    19   ar
    24    14    15   ar
    25    15    16   ar
    26    15    33    1
    27    16    17   ar
    28    16    24    1
    29    17    18   ar
    30    17    22    1
    31    18    19   ar
    32    18    34    1
    33    19    20   ar
    34    20    21   ar
    35    21    35    1
    36    22    23    1
    37    23    36    1
    38    23    37    1
    39    23    38    1
    40    24    25    1
    41    25    39    1
    42    25    40    1
    43    25    41    1
    44    11    42    1
@<TRIPOS>MOLECULE
ZINC03832242
 52 55 0 0 0
SMALL
USER_CHARGES

@<TRIPOS>ATOM
      1 C1          6.6788   14.0245   19.8100 C.ar    1  <0>1       -0.1110
      2 C2          7.6165   14.9188   19.3272 C.ar    1  <0>1       -0.0980
      3 C3          8.3080   14.6365   18.1654 C.ar    1  <0>1       -0.1163
      4 C4          8.0609   13.4533   17.4822 C.ar    1  <0>1        0.1186
      5 C5          7.1147   12.5600   17.9664 C.ar    1  <0>1       -0.1180
      6 C6          6.4308   12.8450   19.1320 C.ar    1  <0>1       -0.1003
      7 N1          8.7609   13.1641   16.3034 N.ar    1  <0>1       -0.4444
      8 C7          8.9166   13.9913   15.2322 C.ar    1  <0>1        0.2844
      9 N2          9.6277   13.4044   14.3141 N.ar    1  <0>1       -0.4905
     10 C8          9.9782   12.1604   14.7311 C.ar    1  <0>1        0.0897
     11 C9          9.4284   11.9866   16.0126 C.ar    1  <0>1        0.0212
     12 C10         9.6238   10.7957   16.6967 C.ar    1  <0>1       -0.0634
     13 C11        10.3587    9.7833   16.1177 C.ar    1  <0>1       -0.1824
     14 C12        10.9070    9.9478   14.8492 C.ar    1  <0>1        0.1171
     15 C13        10.7212   11.1269   14.1549 C.ar    1  <0>1       -0.0994
     16 O1         11.6299    8.9411   14.2897 O.3     1  <0>1       -0.3119
     17 C14        11.7846    7.7477   15.0604 C.3     1  <0>1        0.0597
     18 C15        12.6208    6.7369   14.2730 C.3     1  <0>1       -0.1183
     19 C16        12.7865    5.4592   15.0982 C.3     1  <0>1       -0.1471
     20 C17        13.6227    4.4485   14.3107 C.3     1  <0>1       -0.0033
     21 C18        14.5893    3.4723   16.3057 C.3     1  <0>1       -0.0431
     22 C19        14.6797    2.1856   17.1303 C.3     1  <0>1        0.0347
     23 O2         15.2264    1.1425   16.3187 O.3     1  <0>1       -0.3566
     24 C20        14.4645    0.8716   15.1391 C.3     1  <0>1        0.0342
     25 C21        14.3721    2.1451   14.2943 C.3     1  <0>1       -0.0385
     26 H1          6.1393   14.2474   20.7187 H       1  <0>1        0.1334
     27 H2          7.8085   15.8388   19.8593 H       1  <0>1        0.1366
     28 H3          9.0405   15.3353   17.7891 H       1  <0>1        0.1326
     29 H4          6.9171   11.6409   17.4347 H       1  <0>1        0.1280
     30 H5          5.6978   12.1486   19.5115 H       1  <0>1        0.1344
     31 H6          8.5090   14.9886   15.1562 H       1  <0>1        0.2200
     32 H7          9.2006   10.6618   17.6812 H       1  <0>1        0.1283
     33 H8         10.5096    8.8567   16.6516 H       1  <0>1        0.1334
     34 H9         11.1487   11.2498   13.1708 H       1  <0>1        0.1411
     35 H10        12.2878    7.9835   15.9981 H       1  <0>1        0.0648
     36 H11        10.8037    7.3217   15.2715 H       1  <0>1        0.0651
     37 H12        12.1176    6.5012   13.3352 H       1  <0>1        0.0878
     38 H13        13.6017    7.1629   14.0619 H       1  <0>1        0.0875
     39 H14        13.2897    5.6950   16.0359 H       1  <0>1        0.0902
     40 H15        11.8057    5.0333   15.3092 H       1  <0>1        0.0909
     41 H16        13.1195    4.2127   13.3730 H       1  <0>1        0.1343
     42 H17        14.6036    4.8744   14.0997 H       1  <0>1        0.1349
     43 H18        15.5906    3.7877   16.0126 H       1  <0>1        0.1411
     44 H19        14.1205    4.2548   16.9023 H       1  <0>1        0.1410
     45 H20        13.6838    1.8993   17.4686 H       1  <0>1        0.0808
     46 H21        15.3245    2.3509   17.9935 H       1  <0>1        0.1416
     47 H22        13.4623    0.5473   15.4195 H       1  <0>1        0.0811
     48 H23        14.9536    0.0869   14.5621 H       1  <0>1        0.1421
     49 H24        13.7445    1.9589   13.4226 H       1  <0>1        0.1417
     50 H25        15.3698    2.4394   13.9690 H       1  <0>1        0.1407
     51 N3         13.7578    3.2127   15.1118 N.4     1  <0>1       -0.3968
     52 H26        12.8253    2.9074   15.4142 H       1  <0>1        0.4266
@<TRIPOS>BOND
     1     1     6   ar
     2     1     2   ar
     3     1    26    1
     4     2     3   ar
     5     2    27    1
     6     3     4   ar
     7     3    28    1
     8     4     5   ar
     9     4     7    1
    10     5     6   ar
    11     5    29    1
    12     6    30    1
    13     7    11   ar
    14     7     8   ar
    15     8     9   ar
    16     8    31    1
    17     9    10   ar
    18    10    15   ar
    19    10    11   ar
    20    11    12   ar
    21    12    13   ar
    22    12    32    1
    23    13    14   ar
    24    13    33    1
    25    14    15   ar
    26    14    16    1
    27    15    34    1
    28    16    17    1
    29    17    18    1
    30    17    35    1
    31    17    36    1
    32    18    19    1
    33    18    37    1
    34    18    38    1
    35    19    20    1
    36    19    39    1
    37    19    40    1
    38    20    41    1
    39    20    42    1
    40    20    51    1
    41    21    22    1
    42    21    43    1
    43    21    44    1
    44    21    51    1
    45    22    23    1
    46    22    45    1
    47    22    46    1
    48    23    24    1
    49    24    25    1
    50    24    47    1
    51    24    48    1
    52    25    49    1
    53    25    50    1
    54    25    51    1
    55    51    52    1
@<TRIPOS>MOLECULE
ZINC03832243
 41 44 0 0 0
SMALL
USER_CHARGES

@<TRIPOS>ATOM
      1 C1         12.8744   11.8821   14.2180 C.3     1  <0>1        0.0698
      2 N1         11.4702   11.4655   14.1888 N.ar    1  <0>1       -0.5073
      3 C2         11.1464   10.1526   14.4211 C.ar    1  <0>1        0.4616
      4 C3          9.7981    9.7345   14.3960 C.ar    1  <0>1       -0.2754
      5 C4          8.7691   10.6668   14.1316 C.ar    1  <0>1        0.0128
      6 C5          9.1019   11.9749   13.9014 C.ar    1  <0>1       -0.1536
      7 C6         10.5105   12.3741   13.9286 C.ar    1  <0>1        0.5483
      8 O1         10.8156   13.5348   13.7200 O.2     1  <0>1       -0.5036
      9 C7          8.0464   12.9764   13.6212 C.ar    1  <0>1       -0.0312
     10 C8          7.1074   13.2966   14.6012 C.ar    1  <0>1       -0.1026
     11 C9          6.1271   14.2304   14.3345 C.ar    1  <0>1       -0.1203
     12 C10         6.0750   14.8489   13.0981 C.ar    1  <0>1       -0.1140
     13 C11         7.0038   14.5354   12.1220 C.ar    1  <0>1       -0.1191
     14 C12         7.9883   13.6025   12.3765 C.ar    1  <0>1       -0.0893
     15 C13         9.5101    8.3829   14.6378 C.ar    1  <0>1        0.2608
     16 N2         10.5110    7.5569   14.8789 N.ar    1  <0>1       -0.5671
     17 C14        11.7681    7.9860   14.8946 C.ar    1  <0>1        0.6068
     18 N3         12.0892    9.2514   14.6723 N.ar    1  <0>1       -0.5965
     19 N4         12.7778    7.0787   15.1518 N.pl3   1  <0>1       -0.6269
     20 C15        12.4623    5.7627   15.5032 C.ar    1  <0>1        0.1546
     21 C16        11.3275    5.4972   16.2589 C.ar    1  <0>1       -0.1099
     22 C17        11.0156    4.1956   16.5993 C.ar    1  <0>1       -0.1006
     23 C18        11.8375    3.1585   16.1981 C.ar    1  <0>1       -0.1329
     24 C19        12.9714    3.4200   15.4510 C.ar    1  <0>1       -0.0995
     25 C20        13.2860    4.7187   15.1022 C.ar    1  <0>1       -0.1438
     26 H1         13.3022   11.7878   13.2199 H       1  <0>1        0.0740
     27 H2         12.9387   12.9200   14.5444 H       1  <0>1        0.0918
     28 H3         13.4271   11.2482   14.9115 H       1  <0>1        0.0945
     29 H4          7.7362   10.3522   14.1116 H       1  <0>1        0.1513
     30 H5          7.1500   12.8179   15.5684 H       1  <0>1        0.1233
     31 H6          5.3993   14.4792   15.0927 H       1  <0>1        0.1252
     32 H7          5.3059   15.5791   12.8940 H       1  <0>1        0.1233
     33 H8          6.9581   15.0215   11.1586 H       1  <0>1        0.1246
     34 H9          8.7123   13.3581   11.6134 H       1  <0>1        0.1202
     35 H10         8.4909    8.0257   14.6266 H       1  <0>1        0.1881
     36 H11        13.7056    7.3546   15.0886 H       1  <0>1        0.4261
     37 H12        10.6875    6.3072   16.5763 H       1  <0>1        0.1341
     38 H13        10.1312    3.9880   17.1834 H       1  <0>1        0.1262
     39 H14        11.5935    2.1418   16.4692 H       1  <0>1        0.1239
     40 H15        13.6114    2.6077   15.1396 H       1  <0>1        0.1271
     41 H16        14.1716    4.9223   14.5187 H       1  <0>1        0.1251
@<TRIPOS>BOND
     1     1     2    1
     2     1    26    1
     3     1    27    1
     4     1    28    1
     5     2     7   ar
     6     2     3   ar
     7     3    18   ar
     8     3     4   ar
     9     4     5   ar
    10     4    15   ar
    11     5     6   ar
    12     5    29    1
    13     6     7   ar
    14     6     9    1
    15     7     8    2
    16     9    14   ar
    17     9    10   ar
    18    10    11   ar
    19    10    30    1
    20    11    12   ar
    21    11    31    1
    22    12    13   ar
    23    12    32    1
    24    13    14   ar
    25    13    33    1
    26    14    34    1
    27    15    16   ar
    28    15    35    1
    29    16    17   ar
    30    17    18   ar
    31    17    19    1
    32    19    20    1
    33    19    36    1
    34    20    25   ar
    35    20    21   ar
    36    21    22   ar
    37    21    37    1
    38    22    23   ar
    39    22    38    1
    40    23    24   ar
    41    23    39    1
    42    24    25   ar
    43    24    40    1
    44    25    41    1
@<TRIPOS>MOLECULE
ZINC03832244
 52 55 0 0 0
SMALL
USER_CHARGES

@<TRIPOS>ATOM
      1 C1         13.4505   11.3955   12.8454 C.3     1  <0>1       -0.1125
      2 C2         12.2871   11.6708   13.7628 C.ar    1  <0>1       -0.1366
      3 C3         11.7595   12.9452   13.8449 C.ar    1  <0>1       -0.0764
      4 C4         10.6970   13.2032   14.6892 C.ar    1  <0>1       -0.1421
      5 C5         10.1512   12.1794   15.4544 C.ar    1  <0>1        0.1675
      6 C6         10.6748   10.8975   15.3700 C.ar    1  <0>1       -0.1543
      7 C7         11.7426   10.6418   14.5211 C.ar    1  <0>1        0.1843
      8 N1         12.2736    9.3514   14.4335 N.pl3   1  <0>1       -0.6300
      9 C8         12.1314    8.4704   15.4931 C.ar    1  <0>1        0.5649
     10 N2         11.6074    8.9067   16.6297 N.ar    1  <0>1       -0.5522
     11 C9         11.4555    8.0966   17.6650 C.ar    1  <0>1        0.1930
     12 C10        11.8511    6.7750   17.5542 C.ar    1  <0>1       -0.2706
     13 C11        12.4001    6.3439   16.3439 C.ar    1  <0>1        0.2653
     14 N3         12.5279    7.2162   15.3466 N.ar    1  <0>1       -0.5592
     15 C12        12.8395    4.9375   16.1751 C.ar    1  <0>1       -0.1155
     16 C13        13.3890    4.5054   14.9643 C.ar    1  <0>1       -0.0278
     17 C14        13.7839    3.1831   14.8575 C.ar    1  <0>1       -0.1782
     18 C15        13.6239    2.3395   15.9419 C.ar    1  <0>1        0.1164
     19 N4         13.1021    2.7761   17.0719 N.ar    1  <0>1       -0.4847
     20 C16        12.7167    4.0268   17.2224 C.ar    1  <0>1        0.1330
     21 N5          9.0755   12.4414   16.3089 N.am    1  <0>1       -0.6686
     22 C17         8.9148   13.6732   16.8317 C.2     1  <0>1        0.5615
     23 O1          9.7551   14.5304   16.6380 O.2     1  <0>1       -0.4942
     24 C18         7.7193   13.9814   17.6390 C.ar    1  <0>1       -0.1775
     25 C19         6.7483   13.0012   17.8594 C.ar    1  <0>1       -0.0469
     26 C20         5.6361   13.2943   18.6179 C.ar    1  <0>1       -0.1662
     27 C21         5.4704   14.5605   19.1556 C.ar    1  <0>1       -0.0476
     28 C22         6.4197   15.5398   18.9417 C.ar    1  <0>1       -0.2199
     29 C23         7.5480   15.2609   18.1846 C.ar    1  <0>1        0.1893
     30 O2          8.4811   16.2226   17.9729 O.3     1  <0>1       -0.2813
     31 C24         8.2386   17.5024   18.5603 C.3     1  <0>1        0.0199
     32 H1         13.0779   11.1122   11.8610 H       1  <0>1        0.0695
     33 H2         14.0640   12.2921   12.7575 H       1  <0>1        0.0719
     34 H3         14.0511   10.5829   13.2542 H       1  <0>1        0.0599
     35 H4         12.1816   13.7424   13.2511 H       1  <0>1        0.1293
     36 H5         10.2898   14.2013   14.7546 H       1  <0>1        0.1418
     37 H6         10.2526   10.1004   15.9638 H       1  <0>1        0.1512
     38 H7         12.7414    9.0730   13.6306 H       1  <0>1        0.4244
     39 H8         11.0269    8.4626   18.5863 H       1  <0>1        0.1747
     40 H9         11.7380    6.0929   18.3838 H       1  <0>1        0.1503
     41 H10        13.5021    5.1859   14.1333 H       1  <0>1        0.1467
     42 H11        14.2127    2.8142   13.9376 H       1  <0>1        0.1423
     43 H12        13.9313    1.3073   15.8622 H       1  <0>1        0.1618
     44 H13        12.2978    4.3480   18.1645 H       1  <0>1        0.1625
     45 H14         8.4452   11.7366   16.5253 H       1  <0>1        0.4072
     46 H15         6.8712   12.0141   17.4388 H       1  <0>1        0.1317
     47 H16         4.8878   12.5349   18.7905 H       1  <0>1        0.1325
     48 H17         4.5933   14.7828   19.7452 H       1  <0>1        0.1321
     49 H18         6.2835   16.5244   19.3642 H       1  <0>1        0.1371
     50 H19         7.3052   17.9096   18.1718 H       1  <0>1        0.0576
     51 H20         8.1666   17.3975   19.6429 H       1  <0>1        0.0576
     52 H21         9.0593   18.1764   18.3144 H       1  <0>1        0.1048
@<TRIPOS>BOND
     1     1     2    1
     2     1    32    1
     3     1    33    1
     4     1    34    1
     5     2     7   ar
     6     2     3   ar
     7     3     4   ar
     8     3    35    1
     9     4     5   ar
    10     4    36    1
    11     5     6   ar
    12     5    21    1
    13     6     7   ar
    14     6    37    1
    15     7     8    1
    16     8     9    1
    17     8    38    1
    18     9    14   ar
    19     9    10   ar
    20    10    11   ar
    21    11    12   ar
    22    11    39    1
    23    12    13   ar
    24    12    40    1
    25    13    14   ar
    26    13    15    1
    27    15    20   ar
    28    15    16   ar
    29    16    17   ar
    30    16    41    1
    31    17    18   ar
    32    17    42    1
    33    18    19   ar
    34    18    43    1
    35    19    20   ar
    36    20    44    1
    37    21    22   am
    38    21    45    1
    39    22    23    2
    40    22    24    1
    41    24    29   ar
    42    24    25   ar
    43    25    26   ar
    44    25    46    1
    45    26    27   ar
    46    26    47    1
    47    27    28   ar
    48    27    48    1
    49    28    29   ar
    50    28    49    1
    51    29    30    1
    52    30    31    1
    53    31    50    1
    54    31    51    1
    55    31    52    1
@<TRIPOS>MOLECULE
ZINC03832245
 34 36 0 0 0
SMALL
USER_CHARGES

@<TRIPOS>ATOM
      1 C1         11.7280    8.0277   14.9142 C.3     1  <0>1        0.0221
      2 O1         11.8314    8.9226   13.8049 O.3     1  <0>1       -0.3007
      3 C2         11.1973   10.1199   13.9168 C.ar    1  <0>1        0.1265
      4 C3         10.5040   10.4131   15.0546 C.ar    1  <0>1       -0.1725
      5 C4          9.8489   11.6510   15.1703 C.ar    1  <0>1       -0.0903
      6 C5          9.1319   11.9878   16.3307 C.ar    1  <0>1       -0.0377
      7 C6          8.5059   13.2256   16.3740 C.ar    1  <0>1       -0.1133
      8 C7          8.6155   14.0948   15.2773 C.ar    1  <0>1        0.1458
      9 N1          9.2928   13.7651   14.2068 N.ar    1  <0>1       -0.4679
     10 C8          9.9135   12.5843   14.1039 C.ar    1  <0>1        0.1447
     11 C9         10.6355   12.2511   12.9459 C.ar    1  <0>1       -0.1730
     12 C10        11.2621   11.0414   12.8607 C.ar    1  <0>1        0.1445
     13 O2         11.9587   10.7256   11.7377 O.3     1  <0>1       -0.2998
     14 C11        11.9894   11.7038   10.6966 C.3     1  <0>1        0.0209
     15 C12         7.7319   13.6297   17.5728 C.ar    1  <0>1        0.0070
     16 C13         7.6089   12.7728   18.6705 C.ar    1  <0>1       -0.1684
     17 C14         6.8746   13.1859   19.7630 C.ar    1  <0>1        0.1062
     18 N2          6.2942   14.3707   19.7801 N.ar    1  <0>1       -0.4865
     19 C15         6.3860   15.2092   18.7656 C.ar    1  <0>1        0.1068
     20 C16         7.1006   14.8756   17.6337 C.ar    1  <0>1       -0.1664
     21 H1         12.1481    8.4996   15.8023 H       1  <0>1        0.0588
     22 H2         10.6795    7.7883   15.0914 H       1  <0>1        0.0587
     23 H3         12.2776    7.1122   14.6948 H       1  <0>1        0.1061
     24 H4         10.4589    9.6975   15.8623 H       1  <0>1        0.1467
     25 H5          9.0666   11.3022   17.1627 H       1  <0>1        0.1428
     26 H6          8.1298   15.0585   15.3179 H       1  <0>1        0.1629
     27 H7         10.6948   12.9504   12.1251 H       1  <0>1        0.1527
     28 H8         10.9727   11.9105   10.3622 H       1  <0>1        0.0607
     29 H9         12.4415   12.6214   11.0733 H       1  <0>1        0.0608
     30 H10        12.5771   11.3259    9.8601 H       1  <0>1        0.1066
     31 H11         8.0809   11.8015   18.6632 H       1  <0>1        0.1362
     32 H12         6.7734   12.5307   20.6156 H       1  <0>1        0.1590
     33 H13         5.8949   16.1694   18.8219 H       1  <0>1        0.1602
     34 H14         7.1717   15.5669   16.8069 H       1  <0>1        0.1398
@<TRIPOS>BOND
     1     1     2    1
     2     1    21    1
     3     1    22    1
     4     1    23    1
     5     2     3    1
     6     3    12   ar
     7     3     4   ar
     8     4     5   ar
     9     4    24    1
    10     5    10   ar
    11     5     6   ar
    12     6     7   ar
    13     6    25    1
    14     7     8   ar
    15     7    15    1
    16     8     9   ar
    17     8    26    1
    18     9    10   ar
    19    10    11   ar
    20    11    12   ar
    21    11    27    1
    22    12    13    1
    23    13    14    1
    24    14    28    1
    25    14    29    1
    26    14    30    1
    27    15    20   ar
    28    15    16   ar
    29    16    17   ar
    30    16    31    1
    31    17    18   ar
    32    17    32    1
    33    18    19   ar
    34    19    20   ar
    35    19    33    1
    36    20    34    1
@<TRIPOS>MOLECULE
ZINC03832246
 26 28 0 0 0
SMALL
USER_CHARGES

@<TRIPOS>ATOM
      1 C1          9.8746   12.7298   14.0364 C.ar    1  <0>1       -0.0768
      2 C2         10.6226   12.1957   13.0321 C.ar    1  <0>1       -0.1093
      3 C3         11.3178   11.0011   13.2166 C.ar    1  <0>1       -0.0117
      4 C4         11.2680   10.3352   14.4044 C.ar    1  <0>1       -0.0843
      5 C5         10.5065   10.8546   15.4647 C.ar    1  <0>1        0.1399
      6 C6          9.8009   12.0695   15.2744 C.ar    1  <0>1       -0.1019
      7 C7          9.0336   12.5879   16.3321 C.ar    1  <0>1       -0.0350
      8 C8          9.0124   11.8836   17.5270 C.ar    1  <0>1       -0.1063
      9 C9          9.7380   10.6866   17.6377 C.ar    1  <0>1        0.1549
     10 N1         10.4426   10.2178   16.6395 N.ar    1  <0>1       -0.4656
     11 C10         8.2239   12.3882   18.6776 C.ar    1  <0>1        0.0022
     12 C11         7.5010   13.5812   18.5847 C.ar    1  <0>1       -0.1662
     13 C12         6.7856   14.0172   19.6808 C.ar    1  <0>1        0.1068
     14 N2          6.7783   13.3248   20.8037 N.ar    1  <0>1       -0.4844
     15 C13         7.4465   12.1947   20.9330 C.ar    1  <0>1        0.1074
     16 C14         8.1880   11.6868   19.8863 C.ar    1  <0>1       -0.1646
     17 Cl1        12.2613   10.3518   11.9122 Cl      1  <0>1       -0.0543
     18 H1          9.3403   13.6556   13.8821 H       1  <0>1        0.1437
     19 H2         10.6784   12.7037   12.0807 H       1  <0>1        0.1425
     20 H3         11.8120    9.4107   14.5302 H       1  <0>1        0.1495
     21 H4          8.4806   13.5086   16.2192 H       1  <0>1        0.1476
     22 H5          9.7144   10.1401   18.5688 H       1  <0>1        0.1666
     23 H6          7.5030   14.1532   17.6687 H       1  <0>1        0.1373
     24 H7          6.2238   14.9375   19.6186 H       1  <0>1        0.1601
     25 H8          7.4130   11.6601   21.8708 H       1  <0>1        0.1612
     26 H9          8.7324   10.7608   19.9989 H       1  <0>1        0.1405
@<TRIPOS>BOND
     1     1     6   ar
     2     1     2   ar
     3     1    18    1
     4     2     3   ar
     5     2    19    1
     6     3     4   ar
     7     3    17    1
     8     4     5   ar
     9     4    20    1
    10     5    10   ar
    11     5     6   ar
    12     6     7   ar
    13     7     8   ar
    14     7    21    1
    15     8     9   ar
    16     8    11    1
    17     9    10   ar
    18     9    22    1
    19    11    16   ar
    20    11    12   ar
    21    12    13   ar
    22    12    23    1
    23    13    14   ar
    24    13    24    1
    25    14    15   ar
    26    15    16   ar
    27    15    25    1
    28    16    26    1
@<TRIPOS>MOLECULE
ZINC03832247
 34 36 0 0 0
SMALL
USER_CHARGES

@<TRIPOS>ATOM
      1 C1         11.7279    8.0279   14.9141 C.3     1  <0>1        0.0221
      2 O1         11.8316    8.9229   13.8051 O.3     1  <0>1       -0.3011
      3 C2         11.1978   10.1204   13.9170 C.ar    1  <0>1        0.1270
      4 C3         10.5049   10.4137   15.0550 C.ar    1  <0>1       -0.1735
      5 C4          9.8493   11.6513   15.1706 C.ar    1  <0>1       -0.0865
      6 C5          9.1265   11.9856   16.3284 C.ar    1  <0>1       -0.0468
      7 C6          8.4995   13.2225   16.3708 C.ar    1  <0>1       -0.1001
      8 C7          8.6127   14.0933   15.2760 C.ar    1  <0>1        0.1404
      9 N1          9.2912   13.7641   14.2060 N.ar    1  <0>1       -0.4669
     10 C8          9.9135   12.5842   14.1040 C.ar    1  <0>1        0.1408
     11 C9         10.6355   12.2510   12.9459 C.ar    1  <0>1       -0.1717
     12 C10        11.2626   11.0418   12.8609 C.ar    1  <0>1        0.1422
     13 O2         11.9597   10.7260   11.7381 O.3     1  <0>1       -0.3003
     14 C11        11.9899   11.7040   10.6966 C.3     1  <0>1        0.0212
     15 C12         7.7182   13.6234   17.5666 C.ar    1  <0>1       -0.0916
     16 C13         7.0840   14.8681   17.6161 C.ar    1  <0>1       -0.0673
     17 C14         6.3669   15.1946   18.7540 C.ar    1  <0>1       -0.1651
     18 C15         6.3015   14.2873   19.7959 C.ar    1  <0>1        0.0995
     19 N2          6.9102   13.1198   19.7202 N.ar    1  <0>1       -0.4797
     20 C16         7.6000   12.7630   18.6560 C.ar    1  <0>1        0.1087
     21 H1         12.2773    7.1123   14.6947 H       1  <0>1        0.1058
     22 H2         12.1481    8.4997   15.8023 H       1  <0>1        0.0589
     23 H3         10.6793    7.7887   15.0913 H       1  <0>1        0.0589
     24 H4         10.4601    9.6983   15.8628 H       1  <0>1        0.1468
     25 H5          9.0573   11.2982   17.1586 H       1  <0>1        0.1426
     26 H6          8.1254   15.0563   15.3157 H       1  <0>1        0.1608
     27 H7         10.6943   12.9501   12.1248 H       1  <0>1        0.1520
     28 H8         12.5782   11.3263    9.8605 H       1  <0>1        0.1062
     29 H9         10.9732   11.9099   10.3619 H       1  <0>1        0.0604
     30 H10        12.4413   12.6219   11.0733 H       1  <0>1        0.0604
     31 H11         7.1522   15.5577   16.7876 H       1  <0>1        0.1396
     32 H12         5.8636   16.1474   18.8274 H       1  <0>1        0.1407
     33 H13         5.7427   14.5388   20.6854 H       1  <0>1        0.1592
     34 H14         8.0815   11.7967   18.6295 H       1  <0>1        0.1564
@<TRIPOS>BOND
     1     1     2    1
     2     1    21    1
     3     1    22    1
     4     1    23    1
     5     2     3    1
     6     3    12   ar
     7     3     4   ar
     8     4     5   ar
     9     4    24    1
    10     5    10   ar
    11     5     6   ar
    12     6     7   ar
    13     6    25    1
    14     7     8   ar
    15     7    15    1
    16     8     9   ar
    17     8    26    1
    18     9    10   ar
    19    10    11   ar
    20    11    12   ar
    21    11    27    1
    22    12    13    1
    23    13    14    1
    24    14    28    1
    25    14    29    1
    26    14    30    1
    27    15    20   ar
    28    15    16   ar
    29    16    17   ar
    30    16    31    1
    31    17    18   ar
    32    17    32    1
    33    18    19   ar
    34    18    33    1
    35    19    20   ar
    36    20    34    1
@<TRIPOS>MOLECULE
ZINC03832248
 42 44 0 0 0
SMALL
USER_CHARGES

@<TRIPOS>ATOM
      1 C1          8.5000   16.9947   21.5608 C.3     1  <0>1       -0.1076
      2 C2          8.6387   16.9219   20.0619 C.ar    1  <0>1       -0.1109
      3 C3          9.0420   15.7464   19.4636 C.ar    1  <0>1       -0.0710
      4 C4          9.1751   15.6816   18.0777 C.ar    1  <0>1       -0.0767
      5 C5          8.8901   16.8028   17.2997 C.ar    1  <0>1       -0.0737
      6 C6          8.4827   17.9737   17.9033 C.ar    1  <0>1       -0.2009
      7 C7          8.3557   18.0366   19.2846 C.ar    1  <0>1        0.1315
      8 O1          7.9532   19.1916   19.8765 O.3     1  <0>1       -0.3122
      9 C8          7.6782   20.2995   19.0169 C.3     1  <0>1        0.0253
     10 C9          9.6131   14.4204   17.4314 C.ar    1  <0>1       -0.0895
     11 C10         9.7473   14.3519   16.0517 C.ar    1  <0>1       -0.0574
     12 C11        10.1594   13.1327   15.4886 C.ar    1  <0>1       -0.0844
     13 C12        10.3103   12.9883   14.0984 C.ar    1  <0>1       -0.1753
     14 C13        10.7119   11.7907   13.5839 C.ar    1  <0>1        0.1263
     15 C14        10.9760   10.7010   14.4282 C.ar    1  <0>1        0.1382
     16 C15        10.8378   10.8126   15.7810 C.ar    1  <0>1       -0.1695
     17 C16        10.4257   12.0327   16.3436 C.ar    1  <0>1        0.1363
     18 N1         10.2840   12.1620   17.6673 N.ar    1  <0>1       -0.4674
     19 C17         9.9008   13.2898   18.2110 C.ar    1  <0>1        0.1365
     20 O2         11.3745    9.5183   13.8907 O.3     1  <0>1       -0.3013
     21 C18        11.6280    8.4453   14.7998 C.3     1  <0>1        0.0216
     22 O3         10.8584   11.6512   12.2397 O.3     1  <0>1       -0.3017
     23 C19        10.5745   12.7966   11.4338 C.3     1  <0>1        0.0227
     24 H1          7.4871   16.7105   21.8462 H       1  <0>1        0.0704
     25 H2          9.2130   16.3133   22.0251 H       1  <0>1        0.0674
     26 H3          8.6997   18.0127   21.8952 H       1  <0>1        0.0715
     27 H4          9.2581   14.8783   20.0687 H       1  <0>1        0.1347
     28 H5          8.9881   16.7543   16.2253 H       1  <0>1        0.1271
     29 H6          8.2618   18.8426   17.3011 H       1  <0>1        0.1318
     30 H7          7.3673   21.1555   19.6158 H       1  <0>1        0.1021
     31 H8          8.5768   20.5557   18.4557 H       1  <0>1        0.0564
     32 H9          6.8807   20.0323   18.3237 H       1  <0>1        0.0566
     33 H10         9.5363   15.2089   15.4292 H       1  <0>1        0.1396
     34 H11        10.1096   13.8215   13.4413 H       1  <0>1        0.1448
     35 H12        11.0444    9.9652   16.4179 H       1  <0>1        0.1510
     36 H13         9.7994   13.3498   19.2846 H       1  <0>1        0.1610
     37 H14        11.9377    7.5618   14.2417 H       1  <0>1        0.1055
     38 H15        12.4196    8.7342   15.4913 H       1  <0>1        0.0600
     39 H16        10.7201    8.2214   15.3600 H       1  <0>1        0.0600
     40 H17        10.7306   12.5498   10.3837 H       1  <0>1        0.1051
     41 H18         9.5387   13.0999   11.5856 H       1  <0>1        0.0581
     42 H19        11.2377   13.6138   11.7174 H       1  <0>1        0.0581
@<TRIPOS>BOND
     1     1     2    1
     2     1    24    1
     3     1    25    1
     4     1    26    1
     5     2     7   ar
     6     2     3   ar
     7     3     4   ar
     8     3    27    1
     9     4     5   ar
    10     4    10    1
    11     5     6   ar
    12     5    28    1
    13     6     7   ar
    14     6    29    1
    15     7     8    1
    16     8     9    1
    17     9    30    1
    18     9    31    1
    19     9    32    1
    20    10    19   ar
    21    10    11   ar
    22    11    12   ar
    23    11    33    1
    24    12    17   ar
    25    12    13   ar
    26    13    14   ar
    27    13    34    1
    28    14    15   ar
    29    14    22    1
    30    15    16   ar
    31    15    20    1
    32    16    17   ar
    33    16    35    1
    34    17    18   ar
    35    18    19   ar
    36    19    36    1
    37    20    21    1
    38    21    37    1
    39    21    38    1
    40    21    39    1
    41    22    23    1
    42    23    40    1
    43    23    41    1
    44    23    42    1
@<TRIPOS>MOLECULE
ZINC03832249
 37 39 0 0 0
SMALL
USER_CHARGES

@<TRIPOS>ATOM
      1 C1         11.1372   12.1712   14.4788 C.ar    1  <0>1       -0.1143
      2 C2         11.6335   11.4303   15.5357 C.ar    1  <0>1       -0.1002
      3 C3         11.3293   10.0873   15.6424 C.ar    1  <0>1       -0.1182
      4 C4         10.5247    9.4811   14.6869 C.ar    1  <0>1        0.1242
      5 C5         10.0276   10.2279   13.6271 C.ar    1  <0>1       -0.1182
      6 C6         10.3349   11.5706   13.5261 C.ar    1  <0>1       -0.0993
      7 N1         10.2151    8.1186   14.7918 N.ar    1  <0>1       -0.4468
      8 C7          8.9733    7.5638   14.7141 C.ar    1  <0>1        0.2781
      9 N2          9.0514    6.2724   14.8537 N.ar    1  <0>1       -0.4896
     10 C8         10.3477    5.9081   15.0307 C.ar    1  <0>1        0.0890
     11 C9         11.1146    7.0848   14.9879 C.ar    1  <0>1        0.0181
     12 C10        12.4912    7.0230   15.1490 C.ar    1  <0>1       -0.0660
     13 C11        13.1067    5.8044   15.3389 C.ar    1  <0>1       -0.1804
     14 C12        12.3548    4.6338   15.3770 C.ar    1  <0>1        0.1232
     15 C13        10.9832    4.6790   15.2243 C.ar    1  <0>1       -0.1022
     16 O1         12.9747    3.4384   15.5654 O.3     1  <0>1       -0.2987
     17 C14        14.3955    3.4610   15.7166 C.3     1  <0>1        0.0306
     18 C15        14.9099    2.0341   15.9172 C.3     1  <0>1        0.1091
     19 H1         14.5704    1.4064   15.0933 H       1  <0>1        0.1175
     20 C16        16.4394    2.0439   15.9543 C.3     1  <0>1        0.0489
     21 O2         16.9227    0.7010   16.0246 O.3     1  <0>1       -0.5601
     22 O3         14.4067    1.5153   17.1500 O.3     1  <0>1       -0.5408
     23 H2         11.3765   13.2212   14.3976 H       1  <0>1        0.1315
     24 H3         12.2632   11.9012   16.2760 H       1  <0>1        0.1336
     25 H4         11.7174    9.5090   16.4679 H       1  <0>1        0.1291
     26 H5          9.4015    9.7591   12.8823 H       1  <0>1        0.1319
     27 H6          9.9486   12.1519   12.7020 H       1  <0>1        0.1347
     28 H7          8.0576    8.1152   14.5594 H       1  <0>1        0.2175
     29 H8         13.0801    7.9278   15.1210 H       1  <0>1        0.1271
     30 H9         14.1790    5.7577   15.4591 H       1  <0>1        0.1360
     31 H10        10.4040    3.7678   15.2539 H       1  <0>1        0.1417
     32 H11        14.8493    3.8886   14.8226 H       1  <0>1        0.0745
     33 H12        14.6590    4.0675   16.5832 H       1  <0>1        0.0688
     34 H13        16.8217    2.5209   15.0518 H       1  <0>1        0.0591
     35 H14        16.7781    2.5981   16.8296 H       1  <0>1        0.0533
     36 H15        17.8868    0.6308   16.0512 H       1  <0>1        0.3842
     37 H16        14.6701    2.0255   17.9281 H       1  <0>1        0.3733
@<TRIPOS>BOND
     1     1     6   ar
     2     1     2   ar
     3     1    23    1
     4     2     3   ar
     5     2    24    1
     6     3     4   ar
     7     3    25    1
     8     4     5   ar
     9     4     7    1
    10     5     6   ar
    11     5    26    1
    12     6    27    1
    13     7    11   ar
    14     7     8   ar
    15     8     9   ar
    16     8    28    1
    17     9    10   ar
    18    10    15   ar
    19    10    11   ar
    20    11    12   ar
    21    12    13   ar
    22    12    29    1
    23    13    14   ar
    24    13    30    1
    25    14    15   ar
    26    14    16    1
    27    15    31    1
    28    16    17    1
    29    17    18    1
    30    17    32    1
    31    17    33    1
    32    18    19    1
    33    18    20    1
    34    18    22    1
    35    20    21    1
    36    20    34    1
    37    20    35    1
    38    21    36    1
    39    22    37    1
@<TRIPOS>MOLECULE
ZINC03832250
 40 43 0 0 0
SMALL
USER_CHARGES

@<TRIPOS>ATOM
      1 C1          9.4983   11.1698   13.6398 C.3     1  <0>1        0.0693
      2 N1          8.8146    9.9606   14.1055 N.ar    1  <0>1       -0.5069
      3 C2          9.5520    8.8717   14.4966 C.ar    1  <0>1        0.4607
      4 C3          8.9088    7.6987   14.9478 C.ar    1  <0>1       -0.2695
      5 C4          7.4976    7.6367   15.0006 C.ar    1  <0>1        0.0097
      6 C5          6.7702    8.7284   14.6083 C.ar    1  <0>1       -0.1486
      7 C6          7.4686    9.9272   14.1396 C.ar    1  <0>1        0.5478
      8 O1          6.8290   10.9009   13.7838 O.2     1  <0>1       -0.5012
      9 C7          5.2895    8.6949   14.6520 C.ar    1  <0>1       -0.0332
     10 C8          4.6275    8.5839   15.8742 C.ar    1  <0>1       -0.1020
     11 C9          3.2484    8.5537   15.9085 C.ar    1  <0>1       -0.1202
     12 C10         2.5226    8.6332   14.7334 C.ar    1  <0>1       -0.1131
     13 C11         3.1738    8.7435   13.5177 C.ar    1  <0>1       -0.1190
     14 C12         4.5525    8.7748   13.4708 C.ar    1  <0>1       -0.0889
     15 C13         9.6996    6.6076   15.3381 C.ar    1  <0>1        0.2611
     16 N2         11.0127    6.7218   15.2675 N.ar    1  <0>1       -0.5676
     17 C14        11.5835    7.8417   14.8376 C.ar    1  <0>1        0.6055
     18 N3         10.8794    8.8971   14.4589 N.ar    1  <0>1       -0.5920
     19 N4         12.9631    7.9073   14.7833 N.pl3   1  <0>1       -0.6254
     20 C15        13.7309    6.8567   15.2824 C.ar    1  <0>1        0.2032
     21 C16        13.3003    6.1156   16.3823 C.ar    1  <0>1       -0.1668
     22 C17        14.0873    5.0808   16.8427 C.ar    1  <0>1        0.1183
     23 N5         15.2379    4.7959   16.2623 N.ar    1  <0>1       -0.4969
     24 C18        15.6823    5.4767   15.2227 C.ar    1  <0>1        0.1210
     25 C19        14.9524    6.5230   14.6984 C.ar    1  <0>1       -0.2012
     26 H1          9.6477   11.1104   12.5618 H       1  <0>1        0.0747
     27 H2          8.8910   12.0439   13.8748 H       1  <0>1        0.0926
     28 H3         10.4649   11.2548   14.1365 H       1  <0>1        0.0947
     29 H4          7.0007    6.7420   15.3453 H       1  <0>1        0.1525
     30 H5          5.1930    8.5262   16.7926 H       1  <0>1        0.1235
     31 H6          2.7346    8.4681   16.8545 H       1  <0>1        0.1255
     32 H7          1.4434    8.6089   14.7652 H       1  <0>1        0.1237
     33 H8          2.6019    8.8050   12.6037 H       1  <0>1        0.1250
     34 H9          5.0597    8.8612   12.5212 H       1  <0>1        0.1203
     35 H10         9.2437    5.6934   15.6884 H       1  <0>1        0.1900
     36 H11        13.3969    8.6846   14.3978 H       1  <0>1        0.4294
     37 H12        12.3620    6.3465   16.8647 H       1  <0>1        0.1459
     38 H13        13.7600    4.4990   17.6918 H       1  <0>1        0.1597
     39 H14        16.6295    5.2115   14.7770 H       1  <0>1        0.1605
     40 H15        15.3220    7.0764   13.8476 H       1  <0>1        0.1379
@<TRIPOS>BOND
     1     1     2    1
     2     1    26    1
     3     1    27    1
     4     1    28    1
     5     2     7   ar
     6     2     3   ar
     7     3    18   ar
     8     3     4   ar
     9     4     5   ar
    10     4    15   ar
    11     5     6   ar
    12     5    29    1
    13     6     7   ar
    14     6     9    1
    15     7     8    2
    16     9    14   ar
    17     9    10   ar
    18    10    11   ar
    19    10    30    1
    20    11    12   ar
    21    11    31    1
    22    12    13   ar
    23    12    32    1
    24    13    14   ar
    25    13    33    1
    26    14    34    1
    27    15    16   ar
    28    15    35    1
    29    16    17   ar
    30    17    18   ar
    31    17    19    1
    32    19    20    1
    33    19    36    1
    34    20    25   ar
    35    20    21   ar
    36    21    22   ar
    37    21    37    1
    38    22    23   ar
    39    22    38    1
    40    23    24   ar
    41    24    25   ar
    42    24    39    1
    43    25    40    1
@<TRIPOS>MOLECULE
ZINC03832251
 34 37 0 0 0
SMALL
USER_CHARGES

@<TRIPOS>ATOM
      1 C1          8.2370   13.9455   19.4991 C.ar    1  <0>1       -0.1142
      2 C2          8.8835   14.6174   18.4780 C.ar    1  <0>1       -0.0994
      3 C3          9.3511   13.9225   17.3797 C.ar    1  <0>1       -0.1181
      4 C4          9.1714   12.5479   17.3017 C.ar    1  <0>1        0.1238
      5 C5          8.5172   11.8769   18.3262 C.ar    1  <0>1       -0.1181
      6 C6          8.0570   12.5765   19.4246 C.ar    1  <0>1       -0.1001
      7 N1          9.6441   11.8402   16.1886 N.ar    1  <0>1       -0.4465
      8 C7          9.4240   12.1506   14.8805 C.ar    1  <0>1        0.2782
      9 N2         10.0094   11.2805   14.1102 N.ar    1  <0>1       -0.4899
     10 C8         10.6460   10.3513   14.8693 C.ar    1  <0>1        0.0885
     11 C9         10.4219   10.6953   16.2131 C.ar    1  <0>1        0.0187
     12 C10        10.9579    9.9163   17.2282 C.ar    1  <0>1       -0.0653
     13 C11        11.7105    8.8043   16.9165 C.ar    1  <0>1       -0.1789
     14 C12        11.9369    8.4569   15.5879 C.ar    1  <0>1        0.1251
     15 C13        11.4152    9.2251   14.5660 C.ar    1  <0>1       -0.1026
     16 O1         12.6811    7.3574   15.2944 O.3     1  <0>1       -0.3079
     17 C14        13.1966    6.6095   16.3976 C.3     1  <0>1        0.0726
     18 C15        14.0015    5.4182   15.8744 C.3     1  <0>1       -0.0103
     19 H1         13.6979    5.0330   14.9010 H       1  <0>1        0.1390
     20 C16        14.5441    4.4193   16.8986 C.3     1  <0>1       -0.0226
     21 O2         15.3874    5.3494   16.2160 O.3     1  <0>1       -0.3503
     22 H2          7.8723   14.4910   20.3569 H       1  <0>1        0.1316
     23 H3          9.0227   15.6867   18.5390 H       1  <0>1        0.1347
     24 H4          9.8562   14.4477   16.5826 H       1  <0>1        0.1319
     25 H5          8.3723   10.8083   18.2664 H       1  <0>1        0.1293
     26 H6          7.5523   12.0544   20.2240 H       1  <0>1        0.1337
     27 H7          8.8472   12.9951   14.5335 H       1  <0>1        0.2175
     28 H8         10.7861   10.1807   18.2611 H       1  <0>1        0.1278
     29 H9         12.1272    8.1991   17.7080 H       1  <0>1        0.1376
     30 H10        11.5976    8.9542   13.5365 H       1  <0>1        0.1415
     31 H11        13.8428    7.2484   16.9994 H       1  <0>1        0.0752
     32 H12        12.3701    6.2488   17.0098 H       1  <0>1        0.0845
     33 H13        14.3308    4.6050   17.9513 H       1  <0>1        0.1140
     34 H14        14.6015    3.3713   16.6048 H       1  <0>1        0.1190
@<TRIPOS>BOND
     1     1     6   ar
     2     1     2   ar
     3     1    22    1
     4     2     3   ar
     5     2    23    1
     6     3     4   ar
     7     3    24    1
     8     4     5   ar
     9     4     7    1
    10     5     6   ar
    11     5    25    1
    12     6    26    1
    13     7    11   ar
    14     7     8   ar
    15     8     9   ar
    16     8    27    1
    17     9    10   ar
    18    10    15   ar
    19    10    11   ar
    20    11    12   ar
    21    12    13   ar
    22    12    28    1
    23    13    14   ar
    24    13    29    1
    25    14    15   ar
    26    14    16    1
    27    15    30    1
    28    16    17    1
    29    17    18    1
    30    17    31    1
    31    17    32    1
    32    18    19    1
    33    18    21    1
    34    18    20    1
    35    20    21    1
    36    20    33    1
    37    20    34    1
@<TRIPOS>MOLECULE
ZINC03832252
 33 35 0 0 0
SMALL
USER_CHARGES

@<TRIPOS>ATOM
      1 C1         11.7877   15.2840   13.8682 C.3     1  <0>1        0.0251
      2 O1         11.3482   14.5114   14.9872 O.3     1  <0>1       -0.3138
      3 C2         11.5379   13.1666   14.9215 C.ar    1  <0>1        0.1311
      4 C3         12.1323   12.6112   13.8058 C.ar    1  <0>1       -0.1634
      5 C4         12.3265   11.2291   13.7398 C.ar    1  <0>1        0.0865
      6 C5         11.9136   10.4199   14.8119 C.ar    1  <0>1        0.0170
      7 C6         11.3176   10.9935   15.9257 C.ar    1  <0>1       -0.0454
      8 C7         11.1368   12.3590   15.9817 C.ar    1  <0>1       -0.0995
      9 C8         10.4954   12.9803   17.1956 C.3     1  <0>1        0.1304
     10 O2         10.1737   11.9577   18.1404 O.3     1  <0>1       -0.5730
     11 N1         12.2353    9.1216   14.4551 N.ar    1  <0>1       -0.4438
     12 C9         12.8133    9.1734   13.2226 C.ar    1  <0>1        0.2749
     13 N2         12.8664   10.4048   12.8053 N.ar    1  <0>1       -0.4935
     14 C10        12.0081    7.9692   15.2189 C.ar    1  <0>1        0.1230
     15 C11        12.4125    7.9235   16.5464 C.ar    1  <0>1       -0.1147
     16 C12        12.1823    6.7879   17.2981 C.ar    1  <0>1       -0.0993
     17 C13        11.5602    5.6931   16.7268 C.ar    1  <0>1       -0.1141
     18 C14        11.1610    5.7337   15.4035 C.ar    1  <0>1       -0.1005
     19 C15        11.3832    6.8684   14.6481 C.ar    1  <0>1       -0.1182
     20 H1         11.2608   14.9573   12.9717 H       1  <0>1        0.0580
     21 H2         12.8600   15.1458   13.7301 H       1  <0>1        0.0580
     22 H3         11.5775   16.3381   14.0495 H       1  <0>1        0.1024
     23 H4         12.4462   13.2424   12.9877 H       1  <0>1        0.1397
     24 H5         11.0002   10.3717   16.7496 H       1  <0>1        0.1420
     25 H6         11.1877   13.6894   17.6494 H       1  <0>1        0.0644
     26 H7          9.5847   13.5006   16.8991 H       1  <0>1        0.0643
     27 H8          9.7566   12.2860   18.9487 H       1  <0>1        0.3858
     28 H9         13.1751    8.3174   12.6723 H       1  <0>1        0.2167
     29 H10        12.9023    8.7767   16.9919 H       1  <0>1        0.1296
     30 H11        12.4929    6.7532   18.3319 H       1  <0>1        0.1338
     31 H12        11.3853    4.8046   17.3154 H       1  <0>1        0.1313
     32 H13        10.6748    4.8772   14.9602 H       1  <0>1        0.1341
     33 H14        11.0710    6.8996   13.6147 H       1  <0>1        0.1311
@<TRIPOS>BOND
     1     1     2    1
     2     1    20    1
     3     1    21    1
     4     1    22    1
     5     2     3    1
     6     3     8   ar
     7     3     4   ar
     8     4     5   ar
     9     4    23    1
    10     5    13   ar
    11     5     6   ar
    12     6     7   ar
    13     6    11   ar
    14     7     8   ar
    15     7    24    1
    16     8     9    1
    17     9    10    1
    18     9    25    1
    19     9    26    1
    20    10    27    1
    21    11    12   ar
    22    11    14    1
    23    12    13   ar
    24    12    28    1
    25    14    19   ar
    26    14    15   ar
    27    15    16   ar
    28    15    29    1
    29    16    17   ar
    30    16    30    1
    31    17    18   ar
    32    17    31    1
    33    18    19   ar
    34    18    32    1
    35    19    33    1
@<TRIPOS>MOLECULE
ZINC03832253
 30 32 0 0 0
SMALL
USER_CHARGES

@<TRIPOS>ATOM
      1 C1         11.9510   11.2471   11.6751 C.3     1  <0>1        0.0235
      2 O1         10.8759   12.0469   12.1717 O.3     1  <0>1       -0.3138
      3 C2         10.7207   12.1031   13.5205 C.ar    1  <0>1        0.1338
      4 C3         11.5974   11.3939   14.3476 C.ar    1  <0>1       -0.1698
      5 C4         11.4677   11.4294   15.7009 C.ar    1  <0>1       -0.0505
      6 C5         10.4391   12.1889   16.2864 C.ar    1  <0>1        0.0997
      7 C6          9.5503   12.9083   15.4478 C.ar    1  <0>1       -0.0607
      8 C7          9.7099   12.8514   14.0536 C.ar    1  <0>1       -0.1453
      9 C8          8.5217   13.6676   16.0325 C.ar    1  <0>1       -0.0472
     10 C9          8.4250   13.6764   17.4164 C.ar    1  <0>1       -0.0985
     11 C10         9.3438   12.9377   18.1785 C.ar    1  <0>1        0.1364
     12 N1         10.2914   12.2325   17.6148 N.ar    1  <0>1       -0.4592
     13 C11         7.3584   14.4601   18.0858 C.ar    1  <0>1        0.0031
     14 C12         6.4395   15.2049   17.3407 C.ar    1  <0>1       -0.1660
     15 C13         5.4599   15.9155   18.0034 C.ar    1  <0>1        0.1060
     16 N2          5.3908   15.9064   19.3208 N.ar    1  <0>1       -0.4852
     17 C14         6.2412   15.2212   20.0610 C.ar    1  <0>1        0.1062
     18 C15         7.2481   14.4788   19.4792 C.ar    1  <0>1       -0.1645
     19 H1         11.8150   10.2148   11.9975 H       1  <0>1        0.0585
     20 H2         11.9620   11.2891   10.5859 H       1  <0>1        0.1042
     21 H3         12.8960   11.6275   12.0629 H       1  <0>1        0.0585
     22 H4         12.3896   10.8087   13.9047 H       1  <0>1        0.1401
     23 H5         12.1531   10.8751   16.3248 H       1  <0>1        0.1437
     24 H6          9.0379   13.3960   13.4070 H       1  <0>1        0.1405
     25 H7          7.8280   14.2274   15.4227 H       1  <0>1        0.1453
     26 H8          9.2639   12.9478   19.2554 H       1  <0>1        0.1632
     27 H9          6.4930   15.2205   16.2622 H       1  <0>1        0.1375
     28 H10         4.7430   16.4906   17.4362 H       1  <0>1        0.1597
     29 H11         6.1479   15.2417   21.1368 H       1  <0>1        0.1606
     30 H12         7.9408   13.9203   20.0913 H       1  <0>1        0.1402
@<TRIPOS>BOND
     1     1     2    1
     2     1    19    1
     3     1    20    1
     4     1    21    1
     5     2     3    1
     6     3     8   ar
     7     3     4   ar
     8     4     5   ar
     9     4    22    1
    10     5     6   ar
    11     5    23    1
    12     6    12   ar
    13     6     7   ar
    14     7     8   ar
    15     7     9   ar
    16     8    24    1
    17     9    10   ar
    18     9    25    1
    19    10    11   ar
    20    10    13    1
    21    11    12   ar
    22    11    26    1
    23    13    18   ar
    24    13    14   ar
    25    14    15   ar
    26    14    27    1
    27    15    16   ar
    28    15    28    1
    29    16    17   ar
    30    17    18   ar
    31    17    29    1
    32    18    30    1
@<TRIPOS>MOLECULE
ZINC03832254
 38 40 0 0 0
SMALL
USER_CHARGES

@<TRIPOS>ATOM
      1 C1          5.5281   15.5237   19.7668 C.3     1  <0>1        0.0200
      2 O1          6.0993   14.3848   20.4138 O.3     1  <0>1       -0.2980
      3 C2          6.9485   13.6196   19.6794 C.ar    1  <0>1        0.1527
      4 C3          7.2175   13.9643   18.3740 C.ar    1  <0>1       -0.1980
      5 C4          8.0929   13.1796   17.6077 C.ar    1  <0>1        0.1788
      6 C5          8.6919   12.0347   18.1937 C.ar    1  <0>1       -0.1383
      7 C6          9.5670   11.2521   17.4245 C.ar    1  <0>1       -0.0142
      8 C7          9.8067   11.6387   16.1128 C.ar    1  <0>1       -0.1239
      9 C8          9.1766   12.7846   15.6035 C.ar    1  <0>1        0.1647
     10 N1          8.3636   13.5021   16.3369 N.ar    1  <0>1       -0.4743
     11 C9         10.7216   10.8465   15.2560 C.ar    1  <0>1        0.0074
     12 C10        11.3613    9.7060   15.7506 C.ar    1  <0>1       -0.1681
     13 C11        12.2009    8.9954   14.9181 C.ar    1  <0>1        0.1073
     14 N2         12.4107    9.3850   13.6751 N.ar    1  <0>1       -0.4861
     15 C12        11.8310   10.4576   13.1710 C.ar    1  <0>1        0.1072
     16 C13        10.9727   11.2229   13.9331 C.ar    1  <0>1       -0.1670
     17 C14         8.4031   11.7004   19.5321 C.ar    1  <0>1        0.1400
     18 C15         7.5385   12.4902   20.2599 C.ar    1  <0>1        0.0611
     19 O2          7.2571   12.1701   21.5524 O.3     1  <0>1       -0.3182
     20 C16         6.1374   11.3115   21.7790 C.3     1  <0>1        0.0370
     21 O3          8.9725   10.6057   20.1013 O.3     1  <0>1       -0.3241
     22 C17        10.1872   10.8090   20.8260 C.3     1  <0>1        0.0343
     23 H1          4.9537   15.1986   18.8993 H       1  <0>1        0.0617
     24 H2          4.8712   16.0456   20.4628 H       1  <0>1        0.1075
     25 H3          6.3237   16.1956   19.4448 H       1  <0>1        0.0625
     26 H4          6.7551   14.8384   17.9400 H       1  <0>1        0.1521
     27 H5         10.0396   10.3746   17.8406 H       1  <0>1        0.1475
     28 H6          9.3632   13.0787   14.5813 H       1  <0>1        0.1663
     29 H7         11.1975    9.3838   16.7684 H       1  <0>1        0.1365
     30 H8         12.6961    8.1105   15.2898 H       1  <0>1        0.1595
     31 H9         12.0315   10.7406   12.1482 H       1  <0>1        0.1604
     32 H10        10.5013   12.0995   13.5138 H       1  <0>1        0.1397
     33 H11         6.0678   11.0780   22.8413 H       1  <0>1        0.0977
     34 H12         5.2245   11.8121   21.4564 H       1  <0>1        0.0489
     35 H13         6.2660   10.3895   21.2119 H       1  <0>1        0.0503
     36 H14        10.5767    9.8471   21.1596 H       1  <0>1        0.1019
     37 H15        10.9193   11.2927   20.1794 H       1  <0>1        0.0486
     38 H16         9.9924   11.4420   21.6916 H       1  <0>1        0.0585
@<TRIPOS>BOND
     1     1     2    1
     2     1    23    1
     3     1    24    1
     4     1    25    1
     5     2     3    1
     6     3    18   ar
     7     3     4   ar
     8     4     5   ar
     9     4    26    1
    10     5    10   ar
    11     5     6   ar
    12     6     7   ar
    13     6    17   ar
    14     7     8   ar
    15     7    27    1
    16     8     9   ar
    17     8    11    1
    18     9    10   ar
    19     9    28    1
    20    11    16   ar
    21    11    12   ar
    22    12    13   ar
    23    12    29    1
    24    13    14   ar
    25    13    30    1
    26    14    15   ar
    27    15    16   ar
    28    15    31    1
    29    16    32    1
    30    17    18   ar
    31    17    21    1
    32    18    19    1
    33    19    20    1
    34    20    33    1
    35    20    34    1
    36    20    35    1
    37    21    22    1
    38    22    36    1
    39    22    37    1
    40    22    38    1
@<TRIPOS>MOLECULE
ZINC03832255
 27 30 0 0 0
SMALL
USER_CHARGES

@<TRIPOS>ATOM
      1 C1          7.2422   14.4696   19.4711 C.ar    1  <0>1       -0.1527
      2 C2          6.2552   15.1956   20.0431 C.ar    1  <0>1       -0.1653
      3 S1          5.4292   15.8953   18.6241 S.2     1  <0>1        0.0569
      4 C3          6.4554   15.1802   17.3508 C.ar    1  <0>1       -0.1662
      5 C4          7.3516   14.4536   18.0839 C.ar    1  <0>1       -0.0807
      6 C5          8.4202   13.6705   17.4162 C.ar    1  <0>1       -0.0758
      7 C6          8.5195   13.6620   16.0320 C.ar    1  <0>1       -0.0479
      8 C7          9.5493   12.9048   15.4490 C.ar    1  <0>1       -0.0831
      9 C8          9.7115   12.8502   14.0542 C.ar    1  <0>1       -0.0903
     10 C9         10.7198   12.1040   13.5176 C.ar    1  <0>1        0.0484
     11 C10        11.6000   11.3879   14.3476 C.ar    1  <0>1        0.0626
     12 C11        11.4653   11.4257   15.7055 C.ar    1  <0>1       -0.0861
     13 C12        10.4371   12.1849   16.2887 C.ar    1  <0>1        0.1406
     14 N1         10.2908   12.2328   17.6172 N.ar    1  <0>1       -0.4632
     15 C13         9.3383   12.9335   18.1795 C.ar    1  <0>1        0.1455
     16 O1         12.5015   10.7346   13.5562 O.3     1  <0>1       -0.3020
     17 C14        11.9203   10.7206   12.2396 C.3     1  <0>1        0.2102
     18 O2         11.0822   11.8905   12.2181 O.3     1  <0>1       -0.3033
     19 H1          7.9357   13.9109   20.0820 H       1  <0>1        0.1402
     20 H2          6.0255   15.3205   21.0910 H       1  <0>1        0.1903
     21 H3          6.3857   15.2918   16.2788 H       1  <0>1        0.1883
     22 H4          7.8259   14.2210   15.4212 H       1  <0>1        0.1440
     23 H5          9.0402   13.3974   13.4089 H       1  <0>1        0.1456
     24 H6         12.1495   10.8722   16.3316 H       1  <0>1        0.1508
     25 H7          9.2570   12.9439   19.2564 H       1  <0>1        0.1644
     26 H8         12.6968   10.7925   11.4781 H       1  <0>1        0.1380
     27 H9         11.3234    9.8200   12.0947 H       1  <0>1        0.0911
@<TRIPOS>BOND
     1     1     5   ar
     2     1     2   ar
     3     1    19    1
     4     2     3   ar
     5     2    20    1
     6     3     4   ar
     7     4     5   ar
     8     4    21    1
     9     5     6    1
    10     6    15   ar
    11     6     7   ar
    12     7     8   ar
    13     7    22    1
    14     8    13   ar
    15     8     9   ar
    16     9    10   ar
    17     9    23    1
    18    10    18    1
    19    10    11   ar
    20    11    12   ar
    21    11    16    1
    22    12    13   ar
    23    12    24    1
    24    13    14   ar
    25    14    15   ar
    26    15    25    1
    27    16    17    1
    28    17    18    1
    29    17    26    1
    30    17    27    1
@<TRIPOS>MOLECULE
ZINC03832256
 45 47 0 0 0
SMALL
USER_CHARGES

@<TRIPOS>ATOM
      1 C1          0.6076   13.0309   14.2746 C.3     1  <0>1        0.0268
      2 O1          1.0949   11.7061   14.4975 O.3     1  <0>1       -0.3186
      3 C2          2.4329   11.5651   14.6892 C.ar    1  <0>1        0.1235
      4 C3          2.9742   10.3071   14.9112 C.ar    1  <0>1       -0.1498
      5 C4          4.3346   10.1662   15.1053 C.ar    1  <0>1       -0.0763
      6 C5          5.1567   11.2777   15.0787 C.ar    1  <0>1       -0.1211
      7 C6          4.6197   12.5325   14.8576 C.ar    1  <0>1       -0.0752
      8 C7          3.2598   12.6787   14.6629 C.ar    1  <0>1       -0.2058
      9 C8          6.6396   11.1219   15.2969 C.3     1  <0>1       -0.0702
     10 C9          7.3321   10.8942   13.9518 C.3     1  <0>1       -0.0702
     11 C10         8.8150   10.7384   14.1702 C.ar    1  <0>1       -0.1371
     12 C11         9.3469    9.4996   14.3943 C.ar    1  <0>1       -0.0568
     13 C12        10.7357    9.3991   14.5928 C.ar    1  <0>1       -0.0879
     14 C13        11.3509    8.1580   14.8279 C.ar    1  <0>1       -0.1747
     15 C14        12.7006    8.0986   15.0155 C.ar    1  <0>1        0.1248
     16 C15        13.4815    9.2643   14.9768 C.ar    1  <0>1        0.1373
     17 C16        12.9110   10.4826   14.7505 C.ar    1  <0>1       -0.1703
     18 C17        11.5227   10.5777   14.5527 C.ar    1  <0>1        0.1348
     19 N1         10.9392   11.7593   14.3281 N.ar    1  <0>1       -0.4702
     20 C18         9.6450   11.8556   14.1379 C.ar    1  <0>1        0.1331
     21 O2         14.8240    9.1781   15.1678 O.3     1  <0>1       -0.3018
     22 C19        15.5662   10.3983   15.1172 C.3     1  <0>1        0.0220
     23 O3         13.2957    6.8978   15.2430 O.3     1  <0>1       -0.3023
     24 C20        12.4474    5.7482   15.2712 C.3     1  <0>1        0.0230
     25 H1         -0.4733   13.0020   14.1369 H       1  <0>1        0.1010
     26 H2          0.8477   13.6558   15.1347 H       1  <0>1        0.0558
     27 H3          1.0767   13.4451   13.3821 H       1  <0>1        0.0559
     28 H4          2.3325    9.4386   14.9325 H       1  <0>1        0.1305
     29 H5          4.7565    9.1872   15.2777 H       1  <0>1        0.1285
     30 H6          5.2638   13.3992   14.8376 H       1  <0>1        0.1253
     31 H7          2.8408   13.6589   14.4900 H       1  <0>1        0.1280
     32 H8          7.0353   12.0253   15.7610 H       1  <0>1        0.0742
     33 H9          6.8231   10.2681   15.9493 H       1  <0>1        0.0731
     34 H10         6.9362    9.9908   13.4877 H       1  <0>1        0.0770
     35 H11         7.1485   11.7481   13.2995 H       1  <0>1        0.0788
     36 H12         8.7181    8.6219   14.4182 H       1  <0>1        0.1372
     37 H13        10.7582    7.2557   14.8594 H       1  <0>1        0.1445
     38 H14        13.5242   11.3713   14.7229 H       1  <0>1        0.1500
     39 H15         9.2113   12.8277   13.9556 H       1  <0>1        0.1577
     40 H16        15.4387   10.8607   14.1383 H       1  <0>1        0.0597
     41 H17        15.2034   11.0766   15.8895 H       1  <0>1        0.0597
     42 H18        16.6225   10.1883   15.2850 H       1  <0>1        0.1053
     43 H19        11.7067    5.8626   16.0627 H       1  <0>1        0.0580
     44 H20        11.9408    5.6470   14.3114 H       1  <0>1        0.0580
     45 H21        13.0475    4.8583   15.4610 H       1  <0>1        0.1049
@<TRIPOS>BOND
     1     1     2    1
     2     1    25    1
     3     1    26    1
     4     1    27    1
     5     2     3    1
     6     3     8   ar
     7     3     4   ar
     8     4     5   ar
     9     4    28    1
    10     5     6   ar
    11     5    29    1
    12     6     7   ar
    13     6     9    1
    14     7     8   ar
    15     7    30    1
    16     8    31    1
    17     9    10    1
    18     9    32    1
    19     9    33    1
    20    10    11    1
    21    10    34    1
    22    10    35    1
    23    11    20   ar
    24    11    12   ar
    25    12    13   ar
    26    12    36    1
    27    13    18   ar
    28    13    14   ar
    29    14    15   ar
    30    14    37    1
    31    15    16   ar
    32    15    23    1
    33    16    17   ar
    34    16    21    1
    35    17    18   ar
    36    17    38    1
    37    18    19   ar
    38    19    20   ar
    39    20    39    1
    40    21    22    1
    41    22    40    1
    42    22    41    1
    43    22    42    1
    44    23    24    1
    45    24    43    1
    46    24    44    1
    47    24    45    1
@<TRIPOS>MOLECULE
ZINC03832257
 41 44 0 0 0
SMALL
USER_CHARGES

@<TRIPOS>ATOM
      1 C1         12.1604   10.5149   12.7743 C.3     1  <0>1       -0.1626
      2 C2         11.4259    9.4823   13.6317 C.3     1  <0>1        0.0970
      3 N1         11.9923    9.4776   14.9827 N.ar    1  <0>1       -0.5042
      4 C3         11.4699   10.3093   15.9412 C.ar    1  <0>1        0.4628
      5 C4         12.0041   10.3170   17.2475 C.ar    1  <0>1       -0.2752
      6 C5         13.0840    9.4659   17.5798 C.ar    1  <0>1        0.0119
      7 C6         13.5981    8.6402   16.6176 C.ar    1  <0>1       -0.1374
      8 C7         13.0169    8.6529   15.2732 C.ar    1  <0>1        0.5488
      9 O1         13.4653    7.9170   14.4122 O.2     1  <0>1       -0.5036
     10 C8         14.7295    7.7361   16.9347 C.ar    1  <0>1       -0.0718
     11 C9         15.9801    8.2497   17.2661 C.ar    1  <0>1       -0.1435
     12 C10        16.9860    7.3932   17.5535 C.ar    1  <0>1       -0.1731
     13 S1         16.1992    5.8039   17.3523 S.2     1  <0>1        0.0486
     14 C11        14.5701    6.3782   16.9028 C.ar    1  <0>1       -0.1417
     15 C12        11.4412   11.1816   18.1976 C.ar    1  <0>1        0.2597
     16 N2         10.4346   11.9533   17.8317 N.ar    1  <0>1       -0.5674
     17 C13         9.9574   11.9194   16.5925 C.ar    1  <0>1        0.6058
     18 N3         10.4557   11.1203   15.6618 N.ar    1  <0>1       -0.5945
     19 N4          8.9021   12.7491   16.2626 N.pl3   1  <0>1       -0.6274
     20 C14         8.2816   13.5180   17.2516 C.ar    1  <0>1        0.1554
     21 C15         8.1629   13.0244   18.5447 C.ar    1  <0>1       -0.1101
     22 C16         7.5545   13.7888   19.5207 C.ar    1  <0>1       -0.1006
     23 C17         7.0539   15.0398   19.2094 C.ar    1  <0>1       -0.1332
     24 C18         7.1648   15.5315   17.9217 C.ar    1  <0>1       -0.0995
     25 C19         7.7773   14.7747   16.9422 C.ar    1  <0>1       -0.1442
     26 H1         13.2185   10.2585   12.7238 H       1  <0>1        0.0602
     27 H2         12.0469   11.5034   13.2194 H       1  <0>1        0.0594
     28 H3         11.7389   10.5183   11.7691 H       1  <0>1        0.0769
     29 H4         10.3676    9.7386   13.6822 H       1  <0>1        0.1003
     30 H5         11.5394    8.4938   13.1867 H       1  <0>1        0.0976
     31 H6         13.4962    9.4677   18.5780 H       1  <0>1        0.1501
     32 H7         16.1435    9.3169   17.2968 H       1  <0>1        0.1347
     33 H8         18.0063    7.6141   17.8301 H       1  <0>1        0.1880
     34 H9         13.6872    5.8027   16.6670 H       1  <0>1        0.1841
     35 H10        11.8235   11.2156   19.2071 H       1  <0>1        0.1872
     36 H11         8.5922   12.7979   15.3447 H       1  <0>1        0.4259
     37 H12         8.5497   12.0456   18.7873 H       1  <0>1        0.1340
     38 H13         7.4656   13.4074   20.5271 H       1  <0>1        0.1261
     39 H14         6.5749   15.6339   19.9736 H       1  <0>1        0.1238
     40 H15         6.7725   16.5088   17.6818 H       1  <0>1        0.1269
     41 H16         7.8636   15.1594   15.9367 H       1  <0>1        0.1249
@<TRIPOS>BOND
     1     1     2    1
     2     1    26    1
     3     1    27    1
     4     1    28    1
     5     2     3    1
     6     2    29    1
     7     2    30    1
     8     3     8   ar
     9     3     4   ar
    10     4    18   ar
    11     4     5   ar
    12     5     6   ar
    13     5    15   ar
    14     6     7   ar
    15     6    31    1
    16     7     8   ar
    17     7    10    1
    18     8     9    2
    19    10    14   ar
    20    10    11   ar
    21    11    12   ar
    22    11    32    1
    23    12    13   ar
    24    12    33    1
    25    13    14   ar
    26    14    34    1
    27    15    16   ar
    28    15    35    1
    29    16    17   ar
    30    17    18   ar
    31    17    19    1
    32    19    20    1
    33    19    36    1
    34    20    25   ar
    35    20    21   ar
    36    21    22   ar
    37    21    37    1
    38    22    23   ar
    39    22    38    1
    40    23    24   ar
    41    23    39    1
    42    24    25   ar
    43    24    40    1
    44    25    41    1
@<TRIPOS>MOLECULE
ZINC03832258
 39 41 0 0 0
SMALL
USER_CHARGES

@<TRIPOS>ATOM
      1 C1         13.7262    5.1435   15.5325 C.ar    1  <0>1       -0.1144
      2 C2         12.3558    5.1790   15.3510 C.ar    1  <0>1       -0.0995
      3 C3         11.7245    6.3772   15.0799 C.ar    1  <0>1       -0.1183
      4 C4         12.4673    7.5468   14.9899 C.ar    1  <0>1        0.1243
      5 C5         13.8438    7.5070   15.1671 C.ar    1  <0>1       -0.1180
      6 C6         14.4686    6.3068   15.4440 C.ar    1  <0>1       -0.1001
      7 N1         11.8297    8.7638   14.7151 N.ar    1  <0>1       -0.4467
      8 C7         10.9458    9.0036   13.7065 C.ar    1  <0>1        0.2772
      9 N2         10.5453   10.2409   13.7481 N.ar    1  <0>1       -0.4904
     10 C8         11.1434   10.8817   14.7854 C.ar    1  <0>1        0.0882
     11 C9         11.9759    9.9453   15.4216 C.ar    1  <0>1        0.0175
     12 C10        12.7234   10.3197   16.5287 C.ar    1  <0>1       -0.0661
     13 C11        12.6478   11.6114   17.0041 C.ar    1  <0>1       -0.1787
     14 C12        11.8252   12.5445   16.3798 C.ar    1  <0>1        0.1262
     15 C13        11.0752   12.1879   15.2766 C.ar    1  <0>1       -0.1059
     16 O1         11.7599   13.8154   16.8591 O.3     1  <0>1       -0.3125
     17 C14        12.5606   14.1192   18.0030 C.3     1  <0>1        0.0605
     18 C15        12.3569   15.5845   18.3935 C.3     1  <0>1       -0.1172
     19 C16        13.2142   15.9099   19.6183 C.3     1  <0>1       -0.1185
     20 C17        13.0104   17.3751   20.0087 C.3     1  <0>1        0.0757
     21 O2         13.8111   17.6790   21.1526 O.3     1  <0>1       -0.5764
     22 H1         14.2176    4.2054   15.7444 H       1  <0>1        0.1315
     23 H2         11.7785    4.2689   15.4214 H       1  <0>1        0.1346
     24 H3         10.6541    6.4042   14.9385 H       1  <0>1        0.1318
     25 H4         14.4248    8.4144   15.0932 H       1  <0>1        0.1292
     26 H5         15.5387    6.2758   15.5862 H       1  <0>1        0.1336
     27 H6         10.6246    8.2731   12.9786 H       1  <0>1        0.2171
     28 H7         13.3639    9.6003   17.0172 H       1  <0>1        0.1270
     29 H8         13.2306   11.9012   17.8659 H       1  <0>1        0.1378
     30 H9         10.4384   12.9155   14.7957 H       1  <0>1        0.1403
     31 H10        12.2661   13.4776   18.8335 H       1  <0>1        0.0645
     32 H11        13.6111   13.9489   17.7670 H       1  <0>1        0.0645
     33 H12        12.6514   16.2261   17.5629 H       1  <0>1        0.0777
     34 H13        11.3065   15.7549   18.6296 H       1  <0>1        0.0777
     35 H14        12.9197   15.2682   20.4487 H       1  <0>1        0.0736
     36 H15        14.2645   15.7395   19.3822 H       1  <0>1        0.0736
     37 H16        13.3049   18.0168   19.1782 H       1  <0>1        0.0481
     38 H17        11.9600   17.5455   20.2448 H       1  <0>1        0.0481
     39 H18        13.7317   18.5935   21.4566 H       1  <0>1        0.3829
@<TRIPOS>BOND
     1     1     6   ar
     2     1     2   ar
     3     1    22    1
     4     2     3   ar
     5     2    23    1
     6     3     4   ar
     7     3    24    1
     8     4     5   ar
     9     4     7    1
    10     5     6   ar
    11     5    25    1
    12     6    26    1
    13     7    11   ar
    14     7     8   ar
    15     8     9   ar
    16     8    27    1
    17     9    10   ar
    18    10    15   ar
    19    10    11   ar
    20    11    12   ar
    21    12    13   ar
    22    12    28    1
    23    13    14   ar
    24    13    29    1
    25    14    15   ar
    26    14    16    1
    27    15    30    1
    28    16    17    1
    29    17    18    1
    30    17    31    1
    31    17    32    1
    32    18    19    1
    33    18    33    1
    34    18    34    1
    35    19    20    1
    36    19    35    1
    37    19    36    1
    38    20    21    1
    39    20    37    1
    40    20    38    1
    41    21    39    1
@<TRIPOS>MOLECULE
ZINC03832259
 37 40 0 0 0
SMALL
USER_CHARGES

@<TRIPOS>ATOM
      1 C1         11.4263    9.4827   13.6316 C.3     1  <0>1        0.0693
      2 N1         11.9924    9.4775   14.9828 N.ar    1  <0>1       -0.5069
      3 C2         11.4699   10.3091   15.9414 C.ar    1  <0>1        0.4602
      4 C3         12.0040   10.3165   17.2477 C.ar    1  <0>1       -0.2684
      5 C4         13.0837    9.4651   17.5800 C.ar    1  <0>1        0.0093
      6 C5         13.5986    8.6404   16.6175 C.ar    1  <0>1       -0.1319
      7 C6         13.0207    8.6569   15.2716 C.ar    1  <0>1        0.5475
      8 O1         13.4727    7.9251   14.4090 O.2     1  <0>1       -0.5015
      9 C7         14.7307    7.7372   16.9341 C.ar    1  <0>1       -0.0738
     10 C8         15.9811    8.2516   17.2650 C.ar    1  <0>1       -0.1440
     11 C9         16.9875    7.3958   17.5529 C.ar    1  <0>1       -0.1725
     12 S1         16.2018    5.8060   17.3521 S.2     1  <0>1        0.0511
     13 C10        14.5722    6.3791   16.9024 C.ar    1  <0>1       -0.1415
     14 C11        11.4413   11.1811   18.1977 C.ar    1  <0>1        0.2605
     15 N2         10.4347   11.9531   17.8316 N.ar    1  <0>1       -0.5674
     16 C12         9.9577   11.9194   16.5926 C.ar    1  <0>1        0.6052
     17 N3         10.4523   11.1164   15.6634 N.ar    1  <0>1       -0.5917
     18 N4          8.9018   12.7493   16.2626 N.pl3   1  <0>1       -0.6257
     19 C13         8.2832   13.5156   17.2485 C.ar    1  <0>1        0.2034
     20 C14         8.1686   13.0425   18.5554 C.ar    1  <0>1       -0.1670
     21 C15         7.5539   13.8339   19.5030 C.ar    1  <0>1        0.1183
     22 N5          7.0689   15.0191   19.1834 N.ar    1  <0>1       -0.4969
     23 C16         7.1533   15.4997   17.9571 C.ar    1  <0>1        0.1209
     24 C17         7.7576   14.7729   16.9528 C.ar    1  <0>1       -0.2013
     25 H1         11.9499   10.2185   13.0212 H       1  <0>1        0.0745
     26 H2         11.5399    8.4944   13.1863 H       1  <0>1        0.0926
     27 H3         10.3682    9.7392   13.6820 H       1  <0>1        0.0947
     28 H4         13.4963    9.4673   18.5780 H       1  <0>1        0.1520
     29 H5         16.1439    9.3189   17.2952 H       1  <0>1        0.1350
     30 H6         18.0078    7.6176   17.8291 H       1  <0>1        0.1884
     31 H7         13.6898    5.8029   16.6667 H       1  <0>1        0.1845
     32 H8         11.8234   11.2152   19.2072 H       1  <0>1        0.1898
     33 H9          8.5919   12.7982   15.3447 H       1  <0>1        0.4293
     34 H10         8.5591   12.0716   18.8225 H       1  <0>1        0.1458
     35 H11         7.4643   13.4773   20.5185 H       1  <0>1        0.1596
     36 H12         6.7435   16.4745   17.7373 H       1  <0>1        0.1605
     37 H13         7.8227   15.1718   15.9513 H       1  <0>1        0.1379
@<TRIPOS>BOND
     1     1     2    1
     2     1    25    1
     3     1    26    1
     4     1    27    1
     5     2     7   ar
     6     2     3   ar
     7     3    17   ar
     8     3     4   ar
     9     4     5   ar
    10     4    14   ar
    11     5     6   ar
    12     5    28    1
    13     6     7   ar
    14     6     9    1
    15     7     8    2
    16     9    13   ar
    17     9    10   ar
    18    10    11   ar
    19    10    29    1
    20    11    12   ar
    21    11    30    1
    22    12    13   ar
    23    13    31    1
    24    14    15   ar
    25    14    32    1
    26    15    16   ar
    27    16    17   ar
    28    16    18    1
    29    18    19    1
    30    18    33    1
    31    19    24   ar
    32    19    20   ar
    33    20    21   ar
    34    20    34    1
    35    21    22   ar
    36    21    35    1
    37    22    23   ar
    38    23    24   ar
    39    23    36    1
    40    24    37    1
@<TRIPOS>MOLECULE
ZINC03832260
 50 52 0 0 0
SMALL
USER_CHARGES

@<TRIPOS>ATOM
      1 C1         11.6726   18.7796   19.7791 C.3     1  <0>1       -0.1541
      2 C2         11.9888   17.5108   18.9847 C.3     1  <0>1       -0.1259
      3 C3         10.6834   16.8144   18.5952 C.3     1  <0>1       -0.1207
      4 C4         10.9995   15.5456   17.8008 C.3     1  <0>1       -0.1062
      5 C5          9.6942   14.8491   17.4114 C.3     1  <0>1       -0.1396
      6 C6         10.0056   13.5994   16.6289 C.2     1  <0>1        0.5119
      7 O1         11.1582   13.2956   16.4048 O.2     1  <0>1       -0.5190
      8 N1          9.0033   12.8192   16.1782 N.am    1  <0>1       -0.6756
      9 C7          9.2875   11.7104   15.3735 C.ar    1  <0>1        0.1622
     10 C8          8.4150   11.3489   14.3542 C.ar    1  <0>1       -0.1615
     11 C9          8.6973   10.2572   13.5561 C.ar    1  <0>1       -0.0806
     12 C10         9.8420    9.5150   13.7751 C.ar    1  <0>1       -0.1280
     13 C11        10.7158    9.8681   14.7959 C.ar    1  <0>1        0.1824
     14 C12        10.4377   10.9675   15.5960 C.ar    1  <0>1       -0.1497
     15 N2         11.8737    9.1164   15.0173 N.pl3   1  <0>1       -0.6355
     16 C13        11.8682    7.7508   14.7838 C.ar    1  <0>1        0.5673
     17 N3         10.7308    7.1572   14.4511 N.ar    1  <0>1       -0.5539
     18 C14        10.6844    5.8550   14.2197 C.ar    1  <0>1        0.1952
     19 C15        11.8434    5.1065   14.3280 C.ar    1  <0>1       -0.2717
     20 C16        13.0271    5.7597   14.6803 C.ar    1  <0>1        0.2644
     21 N4         13.0000    7.0734   14.8935 N.ar    1  <0>1       -0.5598
     22 C17        14.2955    5.0021   14.8093 C.ar    1  <0>1       -0.1151
     23 C18        15.4804    5.6551   15.1618 C.ar    1  <0>1       -0.0280
     24 C19        16.6374    4.9031   15.2690 C.ar    1  <0>1       -0.1782
     25 C20        16.5848    3.5424   15.0263 C.ar    1  <0>1        0.1160
     26 N5         15.4517    2.9538   14.6953 N.ar    1  <0>1       -0.4849
     27 C21        14.3245    3.6269   14.5867 C.ar    1  <0>1        0.1327
     28 H1         12.6026   19.2758   20.0565 H       1  <0>1        0.0541
     29 H2         11.0712   19.4514   19.1666 H       1  <0>1        0.0536
     30 H3         11.1188   18.5157   20.6800 H       1  <0>1        0.0535
     31 H4         12.5903   16.8391   19.5972 H       1  <0>1        0.0619
     32 H5         12.5426   17.7748   18.0838 H       1  <0>1        0.0621
     33 H6         10.0819   17.4861   17.9828 H       1  <0>1        0.0629
     34 H7         10.1296   16.5504   19.4962 H       1  <0>1        0.0627
     35 H8         11.6010   14.8738   18.4134 H       1  <0>1        0.0704
     36 H9         11.5534   15.8095   16.8999 H       1  <0>1        0.0709
     37 H10         9.0927   15.5208   16.7989 H       1  <0>1        0.0978
     38 H11         9.1403   14.5852   18.3123 H       1  <0>1        0.0971
     39 H12         8.0852   13.0241   16.4149 H       1  <0>1        0.4128
     40 H13         7.5172   11.9243   14.1833 H       1  <0>1        0.1260
     41 H14         8.0194    9.9805   12.7622 H       1  <0>1        0.1299
     42 H15        10.0579    8.6599   13.1519 H       1  <0>1        0.1357
     43 H16        11.1154   11.2443   16.3900 H       1  <0>1        0.1403
     44 H17        12.6809    9.5510   15.3342 H       1  <0>1        0.4249
     45 H18         9.7521    5.3815   13.9496 H       1  <0>1        0.1755
     46 H19        11.8329    4.0422   14.1448 H       1  <0>1        0.1504
     47 H20        15.4927    6.7194   15.3454 H       1  <0>1        0.1467
     48 H21        17.5710    5.3736   15.5397 H       1  <0>1        0.1422
     49 H22        17.4856    2.9524   15.1094 H       1  <0>1        0.1617
     50 H23        13.4157    3.1090   14.3182 H       1  <0>1        0.1627
@<TRIPOS>BOND
     1     1     2    1
     2     1    28    1
     3     1    29    1
     4     1    30    1
     5     2     3    1
     6     2    31    1
     7     2    32    1
     8     3     4    1
     9     3    33    1
    10     3    34    1
    11     4     5    1
    12     4    35    1
    13     4    36    1
    14     5     6    1
    15     5    37    1
    16     5    38    1
    17     6     7    2
    18     6     8   am
    19     8     9    1
    20     8    39    1
    21     9    14   ar
    22     9    10   ar
    23    10    11   ar
    24    10    40    1
    25    11    12   ar
    26    11    41    1
    27    12    13   ar
    28    12    42    1
    29    13    14   ar
    30    13    15    1
    31    14    43    1
    32    15    16    1
    33    15    44    1
    34    16    21   ar
    35    16    17   ar
    36    17    18   ar
    37    18    19   ar
    38    18    45    1
    39    19    20   ar
    40    19    46    1
    41    20    21   ar
    42    20    22    1
    43    22    27   ar
    44    22    23   ar
    45    23    24   ar
    46    23    47    1
    47    24    25   ar
    48    24    48    1
    49    25    26   ar
    50    25    49    1
    51    26    27   ar
    52    27    50    1
@<TRIPOS>MOLECULE
ZINC03832261
 30 32 0 0 0
SMALL
USER_CHARGES

@<TRIPOS>ATOM
      1 C1         12.6678   10.6495   12.3509 C.3     1  <0>1        0.0237
      2 O1         12.5839   10.6463   13.7774 O.3     1  <0>1       -0.3111
      3 C2         11.5919   11.3850   14.3385 C.ar    1  <0>1        0.1515
      4 C3         10.7180   12.1054   13.5172 C.ar    1  <0>1       -0.1884
      5 C4          9.7136   12.8486   14.0529 C.ar    1  <0>1       -0.0508
      6 C5          9.5533   12.9059   15.4485 C.ar    1  <0>1       -0.1339
      7 C6          8.5274   13.6695   16.0305 C.ar    1  <0>1       -0.0232
      8 C7          8.4276   13.6802   17.4145 C.ar    1  <0>1       -0.1259
      9 C8          9.3412   12.9385   18.1798 C.ar    1  <0>1        0.1621
     10 N1         10.2904   12.2330   17.6189 N.ar    1  <0>1       -0.4750
     11 C9         10.4372   12.1834   16.2898 C.ar    1  <0>1        0.1700
     12 C10        11.4621   11.4199   15.7081 C.ar    1  <0>1       -0.1449
     13 C11         7.3635   14.4699   18.0804 C.ar    1  <0>1        0.0084
     14 C12         6.4498   15.2182   17.3323 C.ar    1  <0>1       -0.1696
     15 C13         5.4724   15.9344   17.9918 C.ar    1  <0>1        0.1065
     16 N2          5.4002   15.9273   19.3092 N.ar    1  <0>1       -0.4871
     17 C14         6.2456   15.2390   20.0522 C.ar    1  <0>1        0.1072
     18 C15         7.2502   14.4910   19.4736 C.ar    1  <0>1       -0.1675
     19 H1         13.5009   10.0218   12.0344 H       1  <0>1        0.1051
     20 H2         12.8264   11.6687   11.9985 H       1  <0>1        0.0588
     21 H3         11.7399   10.2603   11.9315 H       1  <0>1        0.0588
     22 H4         10.8402   12.0673   12.4448 H       1  <0>1        0.1384
     23 H5          9.0431   13.3975   13.4082 H       1  <0>1        0.1380
     24 H6          7.8374   14.2318   15.4189 H       1  <0>1        0.1439
     25 H7          9.2592   12.9506   19.2566 H       1  <0>1        0.1641
     26 H8         12.1452   10.8632   16.3324 H       1  <0>1        0.1462
     27 H9          6.5060   15.2324   16.2538 H       1  <0>1        0.1361
     28 H10         4.7592   16.5119   17.4222 H       1  <0>1        0.1590
     29 H11         6.1501   15.2615   21.1277 H       1  <0>1        0.1602
     30 H12         7.9387   13.9299   20.0880 H       1  <0>1        0.1398
@<TRIPOS>BOND
     1     1     2    1
     2     1    19    1
     3     1    20    1
     4     1    21    1
     5     2     3    1
     6     3    12   ar
     7     3     4   ar
     8     4     5   ar
     9     4    22    1
    10     5     6   ar
    11     5    23    1
    12     6    11   ar
    13     6     7   ar
    14     7     8   ar
    15     7    24    1
    16     8     9   ar
    17     8    13    1
    18     9    10   ar
    19     9    25    1
    20    10    11   ar
    21    11    12   ar
    22    12    26    1
    23    13    18   ar
    24    13    14   ar
    25    14    15   ar
    26    14    27    1
    27    15    16   ar
    28    15    28    1
    29    16    17   ar
    30    17    18   ar
    31    17    29    1
    32    18    30    1
@<TRIPOS>MOLECULE
ZINC03832262
 35 37 0 0 0
SMALL
USER_CHARGES

@<TRIPOS>ATOM
      1 C1         11.2428    5.2859   15.3887 C.ar    1  <0>1       -0.1075
      2 C2         12.5554    5.7103   15.2938 C.ar    1  <0>1       -0.0975
      3 C3         12.8369    7.0410   15.0541 C.ar    1  <0>1       -0.1146
      4 C4         11.8001    7.9530   14.9083 C.ar    1  <0>1        0.1118
      5 C5         10.4833    7.5249   15.0098 C.ar    1  <0>1       -0.1166
      6 C6         10.2081    6.1917   15.2435 C.ar    1  <0>1       -0.0995
      7 N1         12.0824    9.3037   14.6650 N.ar    1  <0>1       -0.4409
      8 C7         12.9485   10.0874   15.3661 C.ar    1  <0>1        0.2904
      9 N2         12.9699   11.2883   14.8655 N.ar    1  <0>1       -0.4908
     10 C8         12.1199   11.3596   13.8088 C.ar    1  <0>1        0.0882
     11 C9         11.5377   10.0890   13.6634 C.ar    1  <0>1        0.0273
     12 C10        10.6156    9.8589   12.6528 C.ar    1  <0>1       -0.0583
     13 C11        10.2719   10.8784   11.7910 C.ar    1  <0>1       -0.1824
     14 C12        10.8444   12.1395   11.9281 C.ar    1  <0>1        0.1053
     15 C13        11.7634   12.3849   12.9291 C.ar    1  <0>1       -0.0909
     16 O1         10.4965   13.1363   11.0712 O.3     1  <0>1       -0.3282
     17 C14         9.5406   12.8167   10.0582 C.3     1  <0>1        0.0214
     18 C15         9.2767   14.0538    9.1974 C.3     1  <0>1        0.0071
     19 H1         11.0252    4.2447   15.5762 H       1  <0>1        0.1350
     20 H2         13.3614    5.0003   15.4070 H       1  <0>1        0.1379
     21 H3         13.8624    7.3718   14.9797 H       1  <0>1        0.1329
     22 H4          9.6748    8.2327   14.9013 H       1  <0>1        0.1282
     23 H5          9.1839    5.8573   15.3182 H       1  <0>1        0.1360
     24 H6         13.5321    9.7598   16.2139 H       1  <0>1        0.2223
     25 H7         10.1676    8.8826   12.5415 H       1  <0>1        0.1322
     26 H8          9.5536   10.6976   11.0050 H       1  <0>1        0.1361
     27 H9         12.2049   13.3651   13.0314 H       1  <0>1        0.1419
     28 H10         9.9299   12.0143    9.4314 H       1  <0>1        0.0878
     29 H11         8.6101   12.4940   10.5253 H       1  <0>1        0.1095
     30 H12         8.4837   13.8362    8.4819 H       1  <0>1        0.1541
     31 H13         8.9722   14.8827    9.8363 H       1  <0>1        0.1435
     32 H14        10.8412   13.6427    7.9240 H       1  <0>1        0.4369
     33 H15        10.3541   15.2326    7.8980 H       1  <0>1        0.4419
     34 N3         10.5178   14.4227    8.4938 N.4     1  <0>1       -0.6473
     35 H16        11.2409   14.6555    9.1845 H       1  <0>1        0.4471
@<TRIPOS>BOND
     1     1     6   ar
     2     1     2   ar
     3     1    19    1
     4     2     3   ar
     5     2    20    1
     6     3     4   ar
     7     3    21    1
     8     4     5   ar
     9     4     7    1
    10     5     6   ar
    11     5    22    1
    12     6    23    1
    13     7    11   ar
    14     7     8   ar
    15     8     9   ar
    16     8    24    1
    17     9    10   ar
    18    10    15   ar
    19    10    11   ar
    20    11    12   ar
    21    12    13   ar
    22    12    25    1
    23    13    14   ar
    24    13    26    1
    25    14    15   ar
    26    14    16    1
    27    15    27    1
    28    16    17    1
    29    17    18    1
    30    17    28    1
    31    17    29    1
    32    18    30    1
    33    18    31    1
    34    18    34    1
    35    32    34    1
    36    33    34    1
    37    34    35    1
@<TRIPOS>MOLECULE
ZINC03832263
 46 49 0 0 0
SMALL
USER_CHARGES

@<TRIPOS>ATOM
      1 C1          3.1148    5.2442   10.3250 C.ar    1  <0>1       -0.1075
      2 C2          3.1167    4.3216   11.3550 C.ar    1  <0>1       -0.0975
      3 C3          3.8592    4.5590   12.4953 C.ar    1  <0>1       -0.1147
      4 C4          4.6041    5.7255   12.6066 C.ar    1  <0>1        0.1120
      5 C5          4.5960    6.6524   11.5728 C.ar    1  <0>1       -0.1167
      6 C6          3.8557    6.4068   10.4328 C.ar    1  <0>1       -0.0995
      7 N1          5.3578    5.9694   13.7622 N.ar    1  <0>1       -0.4409
      8 C7          4.9160    5.8842   15.0482 C.ar    1  <0>1        0.2903
      9 N2          5.8813    6.1716   15.8721 N.ar    1  <0>1       -0.4908
     10 C8          7.0094    6.4612   15.1735 C.ar    1  <0>1        0.0886
     11 C9          6.6918    6.3364   13.8104 C.ar    1  <0>1        0.0273
     12 C10         7.6609    6.5747   12.8467 C.ar    1  <0>1       -0.0579
     13 C11         8.9360    6.9332   13.2284 C.ar    1  <0>1       -0.1824
     14 C12         9.2584    7.0590   14.5764 C.ar    1  <0>1        0.1056
     15 C13         8.3052    6.8257   15.5478 C.ar    1  <0>1       -0.0910
     16 O1         10.5201    7.4135   14.9391 O.3     1  <0>1       -0.3277
     17 C14        11.4584    7.6403   13.8855 C.3     1  <0>1        0.0256
     18 C15        12.8128    8.0266   14.4832 C.3     1  <0>1        0.0044
     19 C16        14.3846    7.3387   16.1929 C.3     1  <0>1       -0.0383
     20 C17        14.8764    6.1381   17.0058 C.3     1  <0>1        0.0337
     21 O2         15.3600    5.1304   16.1135 O.3     1  <0>1       -0.3563
     22 C18        14.3808    4.6727   15.1770 C.3     1  <0>1        0.0349
     23 C19        13.8840    5.8584   14.3457 C.3     1  <0>1       -0.0429
     24 H1          2.5339    5.0561    9.4342 H       1  <0>1        0.1349
     25 H2          2.5375    3.4144   11.2677 H       1  <0>1        0.1378
     26 H3          3.8605    3.8380   13.2993 H       1  <0>1        0.1329
     27 H4          5.1708    7.5627   11.6584 H       1  <0>1        0.1282
     28 H5          3.8523    7.1254    9.6267 H       1  <0>1        0.1360
     29 H6          3.9115    5.6167   15.3409 H       1  <0>1        0.2222
     30 H7          7.4168    6.4786   11.7990 H       1  <0>1        0.1322
     31 H8          9.6892    7.1180   12.4767 H       1  <0>1        0.1358
     32 H9          8.5603    6.9243   16.5926 H       1  <0>1        0.1417
     33 H10        11.5681    6.7311   13.2946 H       1  <0>1        0.0853
     34 H11        11.0996    8.4476   13.2471 H       1  <0>1        0.1112
     35 H12        13.5031    8.2868   13.6809 H       1  <0>1        0.1516
     36 H13        12.6867    8.8827   15.1460 H       1  <0>1        0.1437
     37 H14        15.2199    7.7731   15.6438 H       1  <0>1        0.1410
     38 H15        13.9628    8.0854   16.8656 H       1  <0>1        0.1426
     39 H16        14.0530    5.7365   17.5964 H       1  <0>1        0.0819
     40 H17        15.6813    6.4526   17.6701 H       1  <0>1        0.1427
     41 H18        13.5428    4.2286   15.7145 H       1  <0>1        0.0815
     42 H19        14.8274    3.9280   14.5182 H       1  <0>1        0.1420
     43 H20        13.0966    5.5246   13.6699 H       1  <0>1        0.1380
     44 H21        14.7113    6.2692   13.7669 H       1  <0>1        0.1423
     45 N3         13.3336    6.8811   15.2604 N.4     1  <0>1       -0.3988
     46 H22        12.5648    6.4672   15.8006 H       1  <0>1        0.4348
@<TRIPOS>BOND
     1     1     6   ar
     2     1     2   ar
     3     1    24    1
     4     2     3   ar
     5     2    25    1
     6     3     4   ar
     7     3    26    1
     8     4     5   ar
     9     4     7    1
    10     5     6   ar
    11     5    27    1
    12     6    28    1
    13     7    11   ar
    14     7     8   ar
    15     8     9   ar
    16     8    29    1
    17     9    10   ar
    18    10    15   ar
    19    10    11   ar
    20    11    12   ar
    21    12    13   ar
    22    12    30    1
    23    13    14   ar
    24    13    31    1
    25    14    15   ar
    26    14    16    1
    27    15    32    1
    28    16    17    1
    29    17    18    1
    30    17    33    1
    31    17    34    1
    32    18    35    1
    33    18    36    1
    34    18    45    1
    35    19    20    1
    36    19    37    1
    37    19    38    1
    38    19    45    1
    39    20    21    1
    40    20    39    1
    41    20    40    1
    42    21    22    1
    43    22    23    1
    44    22    41    1
    45    22    42    1
    46    23    43    1
    47    23    44    1
    48    23    45    1
    49    45    46    1
@<TRIPOS>MOLECULE
ZINC03832264
 51 54 0 0 0
SMALL
USER_CHARGES

@<TRIPOS>ATOM
      1 C1          8.5414   11.3286   13.9886 C.ar    1  <0>1       -0.0781
      2 C2          9.7969   10.9448   14.4193 C.ar    1  <0>1       -0.1616
      3 C3         10.2911    9.6884   14.0915 C.ar    1  <0>1        0.1828
      4 C4          9.5246    8.8209   13.3260 C.ar    1  <0>1       -0.1411
      5 C5          8.2626    9.2077   12.8994 C.ar    1  <0>1        0.1661
      6 C6          7.7739   10.4654   13.2309 C.ar    1  <0>1       -0.1362
      7 N1          7.4846    8.3342   12.1315 N.am    1  <0>1       -0.6733
      8 C7          6.1445    8.3229   12.2740 C.2     1  <0>1        0.5180
      9 O1          5.6202    9.0017   13.1315 O.2     1  <0>1       -0.5144
     10 C8          5.2976    7.4668   11.3680 C.3     1  <0>1       -0.1040
     11 C9          5.5111    7.8956    9.9149 C.3     1  <0>1       -0.1112
     12 C10         4.6512    7.0265    8.9951 C.3     1  <0>1       -0.1181
     13 C11         3.1764    7.1960    9.3653 C.3     1  <0>1       -0.1236
     14 C12         2.9629    6.7672   10.8184 C.3     1  <0>1       -0.1204
     15 C13         3.8227    7.6363   11.7383 C.3     1  <0>1       -0.1002
     16 N2         11.5617    9.3006   14.5277 N.pl3   1  <0>1       -0.6363
     17 C14        11.8100    7.9755   14.8465 C.ar    1  <0>1        0.5659
     18 N3         10.8059    7.1104   14.8388 N.ar    1  <0>1       -0.5536
     19 C15        11.0023    5.8362   15.1375 C.ar    1  <0>1        0.1949
     20 C16        12.2768    5.4058   15.4623 C.ar    1  <0>1       -0.2708
     21 C17        13.3152    6.3405   15.4621 C.ar    1  <0>1        0.2648
     22 N4         13.0448    7.6049   15.1460 N.ar    1  <0>1       -0.5595
     23 C18        14.6987    5.9289   15.8026 C.ar    1  <0>1       -0.1156
     24 C19        15.7385    6.8637   15.8027 C.ar    1  <0>1       -0.0279
     25 C20        17.0118    6.4291   16.1275 C.ar    1  <0>1       -0.1782
     26 C21        17.2131    5.0966   16.4387 C.ar    1  <0>1        0.1164
     27 N5         16.2122    4.2375   16.4303 N.ar    1  <0>1       -0.4846
     28 C22        14.9827    4.6054   16.1332 C.ar    1  <0>1        0.1329
     29 H1          8.1590   12.3056   14.2452 H       1  <0>1        0.1307
     30 H2         10.3945   11.6220   15.0115 H       1  <0>1        0.1262
     31 H3          9.9082    7.8452   13.0665 H       1  <0>1        0.1366
     32 H4          6.7931   10.7686   12.8955 H       1  <0>1        0.1330
     33 H5          7.9099    7.7366   11.4966 H       1  <0>1        0.4097
     34 H6          5.5835    6.4214   11.4841 H       1  <0>1        0.0998
     35 H7          5.2251    8.9410    9.7988 H       1  <0>1        0.0700
     36 H8          6.5618    7.7748    9.6512 H       1  <0>1        0.0664
     37 H9          4.9372    5.9810    9.1112 H       1  <0>1        0.0651
     38 H10         4.8034    7.3319    7.9599 H       1  <0>1        0.0672
     39 H11         2.5638    6.5767    8.7101 H       1  <0>1        0.0641
     40 H12         2.8904    8.2413    9.2492 H       1  <0>1        0.0635
     41 H13         3.2488    5.7218   10.9345 H       1  <0>1        0.0631
     42 H14         1.9122    6.8879   11.0822 H       1  <0>1        0.0673
     43 H15         3.6706    7.3308   12.7734 H       1  <0>1        0.0706
     44 H16         3.5368    8.6817   11.6221 H       1  <0>1        0.0711
     45 H17        12.2692    9.9594   14.6069 H       1  <0>1        0.4248
     46 H18        10.1768    5.1400   15.1284 H       1  <0>1        0.1740
     47 H19        12.4642    4.3715   15.7104 H       1  <0>1        0.1504
     48 H20        15.5527    7.8984   15.5552 H       1  <0>1        0.1467
     49 H21        17.8392    7.1232   16.1382 H       1  <0>1        0.1424
     50 H22        18.2053    4.7542   16.6930 H       1  <0>1        0.1619
     51 H23        14.1884    3.8737   16.1416 H       1  <0>1        0.1625
@<TRIPOS>BOND
     1     1     6   ar
     2     1     2   ar
     3     1    29    1
     4     2     3   ar
     5     2    30    1
     6     3     4   ar
     7     3    16    1
     8     4     5   ar
     9     4    31    1
    10     5     6   ar
    11     5     7    1
    12     6    32    1
    13     7     8   am
    14     7    33    1
    15     8     9    2
    16     8    10    1
    17    10    15    1
    18    10    11    1
    19    10    34    1
    20    11    12    1
    21    11    35    1
    22    11    36    1
    23    12    13    1
    24    12    37    1
    25    12    38    1
    26    13    14    1
    27    13    39    1
    28    13    40    1
    29    14    15    1
    30    14    41    1
    31    14    42    1
    32    15    43    1
    33    15    44    1
    34    16    17    1
    35    16    45    1
    36    17    22   ar
    37    17    18   ar
    38    18    19   ar
    39    19    20   ar
    40    19    46    1
    41    20    21   ar
    42    20    47    1
    43    21    22   ar
    44    21    23    1
    45    23    28   ar
    46    23    24   ar
    47    24    25   ar
    48    24    48    1
    49    25    26   ar
    50    25    49    1
    51    26    27   ar
    52    26    50    1
    53    27    28   ar
    54    28    51    1
@<TRIPOS>MOLECULE
ZINC03832265
 48 51 0 0 0
SMALL
USER_CHARGES

@<TRIPOS>ATOM
      1 C1         12.0595   19.8137   16.8436 C.3     1  <0>1       -0.1227
      2 C2         11.9240   18.3742   16.4189 C.ar    1  <0>1       -0.0542
      3 C3         13.0417   17.6688   16.0094 C.ar    1  <0>1       -0.1287
      4 C4         12.9245   16.3508   15.6193 C.ar    1  <0>1       -0.0511
      5 C5         11.6750   15.7289   15.6382 C.ar    1  <0>1       -0.1462
      6 C6         10.5506   16.4478   16.0474 C.ar    1  <0>1       -0.0805
      7 C7         10.6825   17.7636   16.4405 C.ar    1  <0>1       -0.1284
      8 C8         11.5420   14.3171   15.2211 C.2     1  <0>1        0.5615
      9 O1         12.5221   13.6949   14.8604 O.2     1  <0>1       -0.5168
     10 N1         10.3341   13.7196   15.2406 N.am    1  <0>1       -0.6687
     11 C9         10.1931   12.4120   14.7652 C.ar    1  <0>1        0.1609
     12 C10         9.0319   12.0346   14.1015 C.ar    1  <0>1       -0.1585
     13 C11         8.8920   10.7433   13.6313 C.ar    1  <0>1       -0.0826
     14 C12         9.9075    9.8243   13.8143 C.ar    1  <0>1       -0.1257
     15 C13        11.0687   10.1936   14.4816 C.ar    1  <0>1        0.1780
     16 C14        11.2124   11.4903   14.9553 C.ar    1  <0>1       -0.1466
     17 N2         12.0938    9.2619   14.6706 N.pl3   1  <0>1       -0.6355
     18 C15        11.7860    7.9321   14.9083 C.ar    1  <0>1        0.5683
     19 N3         10.5178    7.5482   14.8811 N.ar    1  <0>1       -0.5553
     20 C16        10.1830    6.2872   15.1029 C.ar    1  <0>1        0.1956
     21 C17        11.1756    5.3597   15.3668 C.ar    1  <0>1       -0.2726
     22 C18        12.5034    5.7939   15.3889 C.ar    1  <0>1        0.2651
     23 N4         12.7665    7.0769   15.1513 N.ar    1  <0>1       -0.5602
     24 C19        13.6034    4.8386   15.6664 C.ar    1  <0>1       -0.1151
     25 C20        14.9323    5.2723   15.6887 C.ar    1  <0>1       -0.0280
     26 C21        15.9222    4.3417   15.9523 C.ar    1  <0>1       -0.1782
     27 C22        15.5684    3.0245   16.1832 C.ar    1  <0>1        0.1159
     28 N5         14.3055    2.6448   16.1556 N.ar    1  <0>1       -0.4849
     29 C23        13.3288    3.4954   15.9148 C.ar    1  <0>1        0.1327
     30 H1         11.9275   20.4621   15.9775 H       1  <0>1        0.0772
     31 H2         11.2996   20.0453   17.5901 H       1  <0>1        0.0711
     32 H3         13.0493   19.9749   17.2707 H       1  <0>1        0.0713
     33 H4         14.0077   18.1513   15.9948 H       1  <0>1        0.1320
     34 H5         13.7978   15.8012   15.3002 H       1  <0>1        0.1377
     35 H6          9.5802   15.9739   16.0601 H       1  <0>1        0.1262
     36 H7          9.8142   18.3196   16.7618 H       1  <0>1        0.1311
     37 H8          9.5625   14.1965   15.5843 H       1  <0>1        0.4114
     38 H9          8.2382   12.7517   13.9530 H       1  <0>1        0.1262
     39 H10         7.9885   10.4525   13.1158 H       1  <0>1        0.1307
     40 H11         9.7966    8.8166   13.4418 H       1  <0>1        0.1427
     41 H12        12.1159   11.7812   15.4705 H       1  <0>1        0.1410
     42 H13        13.0205    9.5457   14.6314 H       1  <0>1        0.4250
     43 H14         9.1463    5.9852   15.0787 H       1  <0>1        0.1755
     44 H15        10.9295    4.3244   15.5516 H       1  <0>1        0.1502
     45 H16        15.1802    6.3073   15.5044 H       1  <0>1        0.1468
     46 H17        16.9597    4.6406   15.9779 H       1  <0>1        0.1422
     47 H18        16.3381    2.2958   16.3896 H       1  <0>1        0.1617
     48 H19        12.3064    3.1473   15.9051 H       1  <0>1        0.1627
@<TRIPOS>BOND
     1     1     2    1
     2     1    30    1
     3     1    31    1
     4     1    32    1
     5     2     7   ar
     6     2     3   ar
     7     3     4   ar
     8     3    33    1
     9     4     5   ar
    10     4    34    1
    11     5     6   ar
    12     5     8    1
    13     6     7   ar
    14     6    35    1
    15     7    36    1
    16     8     9    2
    17     8    10   am
    18    10    11    1
    19    10    37    1
    20    11    16   ar
    21    11    12   ar
    22    12    13   ar
    23    12    38    1
    24    13    14   ar
    25    13    39    1
    26    14    15   ar
    27    14    40    1
    28    15    16   ar
    29    15    17    1
    30    16    41    1
    31    17    18    1
    32    17    42    1
    33    18    23   ar
    34    18    19   ar
    35    19    20   ar
    36    20    21   ar
    37    20    43    1
    38    21    22   ar
    39    21    44    1
    40    22    23   ar
    41    22    24    1
    42    24    29   ar
    43    24    25   ar
    44    25    26   ar
    45    25    45    1
    46    26    27   ar
    47    26    46    1
    48    27    28   ar
    49    27    47    1
    50    28    29   ar
    51    29    48    1
@<TRIPOS>MOLECULE
ZINC03832266
 38 41 0 0 0
SMALL
USER_CHARGES

@<TRIPOS>ATOM
      1 C1         14.9188    5.3835   15.6633 C.3     1  <0>1        0.0699
      2 N1         13.5324    4.9106   15.6405 N.ar    1  <0>1       -0.5075
      3 C2         12.5168    5.7965   15.3814 C.ar    1  <0>1        0.4611
      4 C3         11.1753    5.3582   15.3611 C.ar    1  <0>1       -0.2744
      5 C4         10.8670    3.9991   15.6027 C.ar    1  <0>1        0.0128
      6 C5         11.8867    3.1224   15.8551 C.ar    1  <0>1       -0.1370
      7 C6         13.2678    3.6099   15.8689 C.ar    1  <0>1        0.5489
      8 O1         14.1813    2.8360   16.0933 O.2     1  <0>1       -0.5052
      9 C7         11.5961    1.6916   16.1128 C.ar    1  <0>1       -0.0721
     10 C8         10.8829    1.3022   17.2429 C.ar    1  <0>1       -0.1436
     11 C9         10.6336   -0.0120   17.4408 C.ar    1  <0>1       -0.1730
     12 S1         11.4185   -0.7638   16.0252 S.2     1  <0>1        0.0490
     13 C10        12.0275    0.7235   15.2486 C.ar    1  <0>1       -0.1418
     14 C11        10.1667    6.2966   15.0980 C.ar    1  <0>1        0.2601
     15 N2         10.5127    7.5517   14.8800 N.ar    1  <0>1       -0.5670
     16 C12        11.7861    7.9286   14.9070 C.ar    1  <0>1        0.6062
     17 N3         12.7723    7.0795   15.1512 N.ar    1  <0>1       -0.5948
     18 N4         12.0929    9.2557   14.6718 N.pl3   1  <0>1       -0.6272
     19 C13        11.0857   10.1504   14.2981 C.ar    1  <0>1        0.1549
     20 C14        10.0299    9.7185   13.5058 C.ar    1  <0>1       -0.1101
     21 C15         9.0336   10.6035   13.1432 C.ar    1  <0>1       -0.1005
     22 C16         9.0921   11.9210   13.5590 C.ar    1  <0>1       -0.1330
     23 C17        10.1452   12.3558   14.3427 C.ar    1  <0>1       -0.0994
     24 C18        11.1418   11.4747   14.7137 C.ar    1  <0>1       -0.1440
     25 H1         15.5843    4.5475   15.8788 H       1  <0>1        0.1003
     26 H2         15.1733    5.8098   14.6931 H       1  <0>1        0.0798
     27 H3         15.0303    6.1450   16.4353 H       1  <0>1        0.0794
     28 H4          9.8422    3.6584   15.5880 H       1  <0>1        0.1508
     29 H5         10.5302    2.0391   17.9491 H       1  <0>1        0.1349
     30 H6         10.0995   -0.4861   18.2510 H       1  <0>1        0.1881
     31 H7         12.5907    0.8310   14.3333 H       1  <0>1        0.1843
     32 H8          9.1289    5.9988   15.0746 H       1  <0>1        0.1878
     33 H9         13.0070    9.5663   14.7660 H       1  <0>1        0.4261
     34 H10         9.9858    8.6906   13.1770 H       1  <0>1        0.1340
     35 H11         8.2101   10.2673   12.5306 H       1  <0>1        0.1262
     36 H12         8.3138   12.6121   13.2706 H       1  <0>1        0.1239
     37 H13        10.1882   13.3857   14.6655 H       1  <0>1        0.1270
     38 H14        11.9640   11.8149   15.3258 H       1  <0>1        0.1251
@<TRIPOS>BOND
     1     1     2    1
     2     1    25    1
     3     1    26    1
     4     1    27    1
     5     2     7   ar
     6     2     3   ar
     7     3    17   ar
     8     3     4   ar
     9     4     5   ar
    10     4    14   ar
    11     5     6   ar
    12     5    28    1
    13     6     7   ar
    14     6     9    1
    15     7     8    2
    16     9    13   ar
    17     9    10   ar
    18    10    11   ar
    19    10    29    1
    20    11    12   ar
    21    11    30    1
    22    12    13   ar
    23    13    31    1
    24    14    15   ar
    25    14    32    1
    26    15    16   ar
    27    16    17   ar
    28    16    18    1
    29    18    19    1
    30    18    33    1
    31    19    24   ar
    32    19    20   ar
    33    20    21   ar
    34    20    34    1
    35    21    22   ar
    36    21    35    1
    37    22    23   ar
    38    22    36    1
    39    23    24   ar
    40    23    37    1
    41    24    38    1
@<TRIPOS>MOLECULE
ZINC03832267
 35 37 0 0 0
SMALL
USER_CHARGES

@<TRIPOS>ATOM
      1 C1         15.0140   10.1551   16.5417 C.3     1  <0>1        0.0192
      2 O1         13.8588    9.4361   16.1056 O.3     1  <0>1       -0.2827
      3 C2         12.6781   10.1063   16.1087 C.ar    1  <0>1        0.1847
      4 C3         12.6356   11.4208   16.5208 C.ar    1  <0>1       -0.1807
      5 C4         11.4201   12.1119   16.5243 C.ar    1  <0>1        0.1271
      6 C5         10.2433   11.4606   16.1061 C.ar    1  <0>1       -0.0027
      7 C6         10.2865   10.1429   15.6937 C.ar    1  <0>1       -0.0006
      8 C7         11.5031    9.4585   15.6856 C.ar    1  <0>1       -0.1399
      9 C8         11.5555    8.0564   15.2407 C.2     1  <0>1        0.5102
     10 O2         12.6137    7.4585   15.2389 O.2     1  <0>1       -0.4809
     11 O3         10.4300    7.4354   14.8354 O.3     1  <0>1       -0.3608
     12 C9         10.5565    6.0528   14.4102 C.3     1  <0>1        0.0381
     13 N1          9.2283   12.3970   16.2237 N.ar    1  <0>1       -0.4415
     14 C10         9.7915   13.5441   16.6907 C.ar    1  <0>1        0.2947
     15 N2         11.0711   13.3770   16.8660 N.ar    1  <0>1       -0.4981
     16 C11         7.8752   12.1993   15.9188 C.ar    1  <0>1        0.1183
     17 C12         7.5103   11.6532   14.6955 C.ar    1  <0>1       -0.1158
     18 C13         6.1759   11.4534   14.4005 C.ar    1  <0>1       -0.0987
     19 C14         5.2030   11.8084   15.3169 C.ar    1  <0>1       -0.1115
     20 C15         5.5630   12.3581   16.5337 C.ar    1  <0>1       -0.0996
     21 C16         6.8961   12.5543   16.8371 C.ar    1  <0>1       -0.1160
     22 H1         15.1673   11.0213   15.8980 H       1  <0>1        0.0597
     23 H2         14.8686   10.4876   17.5695 H       1  <0>1        0.0596
     24 H3         15.8875    9.5051   16.4902 H       1  <0>1        0.1054
     25 H4         13.5403   11.9166   16.8404 H       1  <0>1        0.1482
     26 H5          9.3830    9.6457   15.3731 H       1  <0>1        0.1469
     27 H6         11.2438    5.9936   13.5664 H       1  <0>1        0.0644
     28 H7         10.9412    5.4528   15.2349 H       1  <0>1        0.0644
     29 H8          9.5794    5.6741   14.1103 H       1  <0>1        0.1026
     30 H9          9.2552   14.4608   16.8872 H       1  <0>1        0.2209
     31 H10         8.2694   11.3805   13.9772 H       1  <0>1        0.1306
     32 H11         5.8917   11.0239   13.4512 H       1  <0>1        0.1350
     33 H12         4.1601   11.6556   15.0820 H       1  <0>1        0.1322
     34 H13         4.8010   12.6340   17.2474 H       1  <0>1        0.1352
     35 H14         7.1766   12.9831   17.7878 H       1  <0>1        0.1323
@<TRIPOS>BOND
     1     1     2    1
     2     1    22    1
     3     1    23    1
     4     1    24    1
     5     2     3    1
     6     3     8   ar
     7     3     4   ar
     8     4     5   ar
     9     4    25    1
    10     5    15   ar
    11     5     6   ar
    12     6     7   ar
    13     6    13   ar
    14     7     8   ar
    15     7    26    1
    16     8     9    1
    17     9    10    2
    18     9    11    1
    19    11    12    1
    20    12    27    1
    21    12    28    1
    22    12    29    1
    23    13    14   ar
    24    13    16    1
    25    14    15   ar
    26    14    30    1
    27    16    21   ar
    28    16    17   ar
    29    17    18   ar
    30    17    31    1
    31    18    19   ar
    32    18    32    1
    33    19    20   ar
    34    19    33    1
    35    20    21   ar
    36    20    34    1
    37    21    35    1
@<TRIPOS>MOLECULE
ZINC03832268
 38 41 0 0 0
SMALL
USER_CHARGES

@<TRIPOS>ATOM
      1 C1          9.3294   10.8946   16.8662 C.3     1  <0>1        0.0694
      2 N1          9.9948   11.5795   15.7551 N.ar    1  <0>1       -0.5057
      3 C2         10.9647   10.9242   15.0389 C.ar    1  <0>1        0.4660
      4 C3         11.6186   11.5654   13.9645 C.ar    1  <0>1       -0.2790
      5 C4         11.2796   12.8925   13.6147 C.ar    1  <0>1        0.0348
      6 C5         10.3023   13.5445   14.3406 C.ar    1  <0>1       -0.1238
      7 C6          9.6509   12.8461   15.4534 C.ar    1  <0>1        0.5500
      8 O1          8.7914   13.4124   16.1046 O.2     1  <0>1       -0.4995
      9 C7          9.9220   14.9306   14.0042 C.ar    1  <0>1       -0.0926
     10 C8          9.3281   15.4111   12.8664 C.ar    1  <0>1       -0.1393
     11 C9          9.0598   16.7598   12.7793 C.ar    1  <0>1       -0.1583
     12 C10         9.4001   17.5703   13.8139 C.ar    1  <0>1       -0.1748
     13 S1         10.1152   16.4171   14.9740 S.2     1  <0>1        0.0682
     14 C11        12.6045   10.8580   13.2602 C.ar    1  <0>1        0.2659
     15 N2         12.8810    9.6216   13.6304 N.ar    1  <0>1       -0.5669
     16 C12        12.2451    9.0498   14.6468 C.ar    1  <0>1        0.6097
     17 N3         11.3081    9.6769   15.3411 N.ar    1  <0>1       -0.5967
     18 N4         12.5741    7.7527   14.9928 N.pl3   1  <0>1       -0.6256
     19 C13        13.4750    7.0268   14.2080 C.ar    1  <0>1        0.1535
     20 C14        13.5095    7.2166   12.8323 C.ar    1  <0>1       -0.1096
     21 C15        14.4042    6.5018   12.0605 C.ar    1  <0>1       -0.1006
     22 C16        15.2576    5.5900   12.6544 C.ar    1  <0>1       -0.1322
     23 C17        15.2220    5.3945   14.0229 C.ar    1  <0>1       -0.0995
     24 C18        14.3336    6.1102   14.8013 C.ar    1  <0>1       -0.1432
     25 H1          9.8806   11.0782   17.7885 H       1  <0>1        0.0751
     26 H2          8.3124   11.2729   16.9693 H       1  <0>1        0.0927
     27 H3          9.3003    9.8233   16.6674 H       1  <0>1        0.0955
     28 H4         11.7762   13.3879   12.7935 H       1  <0>1        0.1551
     29 H5          9.0717   14.7453   12.0556 H       1  <0>1        0.1348
     30 H6          8.5875   17.1676   11.8977 H       1  <0>1        0.1361
     31 H7          9.2679   18.6376   13.9120 H       1  <0>1        0.1869
     32 H8         13.1264   11.3157   12.4328 H       1  <0>1        0.1897
     33 H9         12.1798    7.3459   15.7802 H       1  <0>1        0.4266
     34 H10        12.8401    7.9252   12.3674 H       1  <0>1        0.1342
     35 H11        14.4344    6.6518   10.9914 H       1  <0>1        0.1265
     36 H12        15.9533    5.0290   12.0480 H       1  <0>1        0.1241
     37 H13        15.8898    4.6818   14.4836 H       1  <0>1        0.1273
     38 H14        14.3062    5.9572   15.8700 H       1  <0>1        0.1253
@<TRIPOS>BOND
     1     1     2    1
     2     1    25    1
     3     1    26    1
     4     1    27    1
     5     2     7   ar
     6     2     3   ar
     7     3    17   ar
     8     3     4   ar
     9     4     5   ar
    10     4    14   ar
    11     5     6   ar
    12     5    28    1
    13     6     7   ar
    14     6     9    1
    15     7     8    2
    16     9    13   ar
    17     9    10   ar
    18    10    11   ar
    19    10    29    1
    20    11    12   ar
    21    11    30    1
    22    12    13   ar
    23    12    31    1
    24    14    15   ar
    25    14    32    1
    26    15    16   ar
    27    16    17   ar
    28    16    18    1
    29    18    19    1
    30    18    33    1
    31    19    24   ar
    32    19    20   ar
    33    20    21   ar
    34    20    34    1
    35    21    22   ar
    36    21    35    1
    37    22    23   ar
    38    22    36    1
    39    23    24   ar
    40    23    37    1
    41    24    38    1
@<TRIPOS>MOLECULE
ZINC03834019
 39 41 0 0 0
SMALL
USER_CHARGES

@<TRIPOS>ATOM
      1 C1          6.3180    8.7507   14.7721 C.3     1  <0>1        0.0226
      2 O1          7.4365    7.8750   14.9287 O.3     1  <0>1       -0.3017
      3 C2          8.6734    8.4296   14.8268 C.ar    1  <0>1        0.1253
      4 C3          8.7962    9.7667   14.5850 C.ar    1  <0>1       -0.1738
      5 C4         10.0754   10.3400   14.4798 C.ar    1  <0>1       -0.0879
      6 C5         10.2368   11.7128   14.2320 C.ar    1  <0>1       -0.0488
      7 C6         11.5330   12.2119   14.1404 C.ar    1  <0>1       -0.1111
      8 C7         12.6237   11.3368   14.2970 C.ar    1  <0>1        0.1370
      9 N1         12.4489   10.0611   14.5272 N.ar    1  <0>1       -0.4699
     10 C8         11.2269    9.5239   14.6255 C.ar    1  <0>1        0.1382
     11 C9         11.0652    8.1511   14.8738 C.ar    1  <0>1       -0.1708
     12 C10         9.8110    7.6211   14.9709 C.ar    1  <0>1        0.1396
     13 O2          9.6622    6.2920   15.2108 O.3     1  <0>1       -0.3010
     14 C11        10.8567    5.5198   15.3481 C.3     1  <0>1        0.0215
     15 C12        11.7608   13.6454   13.8878 C.2     1  <0>1       -0.1046
     16 C13        13.0138   14.1218   13.8061 C.2     1  <0>1       -0.0996
     17 C14        13.2418   15.5558   13.5535 C.ar    1  <0>1       -0.0603
     18 C15        12.1567   16.4216   13.3928 C.ar    1  <0>1       -0.1125
     19 C16        12.3778   17.7632   13.1618 C.ar    1  <0>1       -0.1191
     20 C17        13.6702   18.2506   13.0783 C.ar    1  <0>1       -0.1172
     21 C18        14.7496   17.3983   13.2312 C.ar    1  <0>1       -0.1192
     22 C19        14.5441   16.0554   13.4678 C.ar    1  <0>1       -0.1059
     23 H1          6.3547    9.5272   15.5362 H       1  <0>1        0.0583
     24 H2          6.3523    9.2107   13.7846 H       1  <0>1        0.0583
     25 H3          5.3940    8.1819   14.8762 H       1  <0>1        0.1053
     26 H4          7.9151   10.3814   14.4749 H       1  <0>1        0.1455
     27 H5          9.3813   12.3616   14.1163 H       1  <0>1        0.1407
     28 H6         13.6280   11.7273   14.2250 H       1  <0>1        0.1607
     29 H7         11.9314    7.5161   14.9869 H       1  <0>1        0.1510
     30 H8         10.5964    4.4782   15.5364 H       1  <0>1        0.1057
     31 H9         11.4411    5.5882   14.4305 H       1  <0>1        0.0601
     32 H10        11.4438    5.9041   16.1822 H       1  <0>1        0.0601
     33 H11        10.9203   14.3129   13.7684 H       1  <0>1        0.1263
     34 H12        13.8543   13.4543   13.9256 H       1  <0>1        0.1252
     35 H13        11.1475   16.0418   13.4529 H       1  <0>1        0.1247
     36 H14        11.5402   18.4343   13.0411 H       1  <0>1        0.1240
     37 H15        13.8372   19.3015   12.8932 H       1  <0>1        0.1229
     38 H16        15.7555   17.7859   13.1647 H       1  <0>1        0.1247
     39 H17        15.3875   15.3914   13.5870 H       1  <0>1        0.1257
@<TRIPOS>BOND
     1     1     2    1
     2     1    23    1
     3     1    24    1
     4     1    25    1
     5     2     3    1
     6     3    12   ar
     7     3     4   ar
     8     4     5   ar
     9     4    26    1
    10     5    10   ar
    11     5     6   ar
    12     6     7   ar
    13     6    27    1
    14     7     8   ar
    15     7    15    1
    16     8     9   ar
    17     8    28    1
    18     9    10   ar
    19    10    11   ar
    20    11    12   ar
    21    11    29    1
    22    12    13    1
    23    13    14    1
    24    14    30    1
    25    14    31    1
    26    14    32    1
    27    15    16    2
    28    15    33    1
    29    16    17    1
    30    16    34    1
    31    17    22   ar
    32    17    18   ar
    33    18    19   ar
    34    18    35    1
    35    19    20   ar
    36    19    36    1
    37    20    21   ar
    38    20    37    1
    39    21    22   ar
    40    21    38    1
    41    22    39    1
@<TRIPOS>MOLECULE
ZINC03834020
 51 54 0 0 0
SMALL
USER_CHARGES

@<TRIPOS>ATOM
      1 C1          5.8872   12.2189   18.2242 C.3     1  <0>1       -0.0375
      2 C2          7.0661   12.6607   17.3959 C.ar    1  <0>1       -0.0223
      3 C3          7.2592   13.9242   16.8346 C.ar    1  <0>1       -0.0231
      4 C4          8.4422   13.9110   16.1713 C.ar    1  <0>1        0.0167
      5 N1          8.9986   12.6788   16.2862 N.ar    1  <0>1       -0.3581
      6 H1          9.8445   12.4016   15.9007 H       1  <0>1        0.1656
      7 C5          8.1612   11.8871   17.0423 C.ar    1  <0>1        0.0434
      8 C6          8.3786   10.5387   17.3926 C.2     1  <0>1       -0.0254
      9 C7          9.0364    9.6947   16.5175 C.2     1  <0>1        0.0479
     10 C8          9.4877    8.3093   16.7723 C.ar    1  <0>1        0.0084
     11 C9          9.3949    7.4658   17.8768 C.ar    1  <0>1       -0.0515
     12 C10         9.9155    6.1925   17.8134 C.ar    1  <0>1       -0.0533
     13 C11        10.5294    5.7473   16.6409 C.ar    1  <0>1       -0.0161
     14 C12        10.6195    6.5838   15.5327 C.ar    1  <0>1       -0.0322
     15 C13        10.0973    7.8687   15.5882 C.ar    1  <0>1        0.0421
     16 N2         10.0539    8.8897   14.6460 N.am    1  <0>1       -0.2809
     17 C14         9.4440    9.9822   15.1361 C.2     1  <0>1        0.2490
     18 O1          9.2615   11.0282   14.5391 O.2     1  <0>1       -0.2698
     19 C15        11.0889    4.3753   16.5767 C.ar    1  <0>1       -0.0178
     20 C16        11.6984    3.9224   15.4078 C.ar    1  <0>1       -0.0540
     21 C17        12.2224    2.6468   15.3558 C.ar    1  <0>1       -0.0612
     22 C18        12.1334    1.8141   16.4568 C.ar    1  <0>1       -0.0617
     23 C19        11.5246    2.2562   17.6176 C.ar    1  <0>1       -0.0612
     24 C20        11.0022    3.5319   17.6831 C.ar    1  <0>1       -0.0540
     25 C21         9.0388   15.0746   15.4221 C.3     1  <0>1       -0.0242
     26 C22         6.3201   15.0973   16.9486 C.3     1  <0>1       -0.0157
     27 C23         6.6824   15.9225   18.1850 C.3     1  <0>1        0.0488
     28 C24         5.7433   17.0956   18.2988 C.2     1  <0>1        0.3050
     29 O2          4.8735   17.2554   17.4756 O.2     1  <0>1       -0.2510
     30 H2          6.0902   12.4126   19.2775 H       1  <0>1        0.0278
     31 H3          5.7189   11.1522   18.0768 H       1  <0>1        0.0278
     32 H4          4.9998   12.7726   17.9174 H       1  <0>1        0.0278
     33 H5          8.0310   10.1653   18.3445 H       1  <0>1        0.0646
     34 H6          8.9198    7.8114   18.7830 H       1  <0>1        0.0624
     35 H7          9.8494    5.5386   18.6704 H       1  <0>1        0.0624
     36 H8         11.0962    6.2334   14.6291 H       1  <0>1        0.0642
     37 H9         10.4177    8.8223   13.7493 H       1  <0>1        0.1552
     38 H10        11.7644    4.5700   14.5461 H       1  <0>1        0.0624
     39 H11        12.6988    2.2963   14.4521 H       1  <0>1        0.0618
     40 H12        12.5412    0.8152   16.4102 H       1  <0>1        0.0618
     41 H13        11.4577    1.6018   18.4741 H       1  <0>1        0.0618
     42 H14        10.5273    3.8762   18.5899 H       1  <0>1        0.0624
     43 H15         8.6955   15.0551   14.3877 H       1  <0>1        0.0292
     44 H16         8.7260   16.0074   15.8911 H       1  <0>1        0.0292
     45 H17        10.1262   15.0027   15.4455 H       1  <0>1        0.0292
     46 H18         6.4067   15.7199   16.0580 H       1  <0>1        0.0319
     47 H19         5.2961   14.7354   17.0405 H       1  <0>1        0.0319
     48 H20         6.5957   15.2999   19.0754 H       1  <0>1        0.0381
     49 H21         7.7064   16.2844   18.0929 H       1  <0>1        0.0381
     50 O3          5.8731   17.9631   19.3149 O.3     1  <0>1       -0.4806
     51 H           6.5477   17.8392   19.9533 H       1  <0>1        0.2951
@<TRIPOS>BOND
     1     1     2    1
     2     1    30    1
     3     1    31    1
     4     1    32    1
     5     2     7   ar
     6     2     3   ar
     7     3     4   ar
     8     3    26    1
     9     4     5   ar
    10     4    25    1
    11     5     6    1
    12     5     7   ar
    13     7     8    1
    14     8     9    2
    15     8    33    1
    16     9    17    1
    17     9    10    1
    18    10    15   ar
    19    10    11   ar
    20    11    12   ar
    21    11    34    1
    22    12    13   ar
    23    12    35    1
    24    13    14   ar
    25    13    19    1
    26    14    15   ar
    27    14    36    1
    28    15    16    1
    29    16    17   am
    30    16    37    1
    31    17    18    2
    32    19    24   ar
    33    19    20   ar
    34    20    21   ar
    35    20    38    1
    36    21    22   ar
    37    21    39    1
    38    22    23   ar
    39    22    40    1
    40    23    24   ar
    41    23    41    1
    42    24    42    1
    43    25    43    1
    44    25    44    1
    45    25    45    1
    46    26    27    1
    47    26    46    1
    48    26    47    1
    49    27    28    1
    50    27    48    1
    51    27    49    1
    52    28    29    2
    53    28    50    1
    54    50    51    1
@<TRIPOS>MOLECULE
ZINC03834021
 24 26 0 0 0
SMALL
USER_CHARGES

@<TRIPOS>ATOM
      1 C1          9.7119   12.8499   14.0526 C.ar    1  <0>1       -0.0623
      2 C2         10.7190   12.1044   13.5211 C.ar    1  <0>1       -0.1474
      3 C3         11.5941   11.3946   14.3444 C.ar    1  <0>1        0.1232
      4 C4         11.4649   11.4274   15.7014 C.ar    1  <0>1       -0.1332
      5 C5         10.4373   12.1859   16.2865 C.ar    1  <0>1        0.1482
      6 C6          9.5501   12.9064   15.4472 C.ar    1  <0>1       -0.1091
      7 C7          8.5175   13.6608   16.0307 C.ar    1  <0>1       -0.0454
      8 C8          8.4221   13.6731   17.4143 C.ar    1  <0>1       -0.0809
      9 C9          9.3395   12.9335   18.1778 C.ar    1  <0>1        0.1530
     10 N1         10.2911   12.2326   17.6153 N.ar    1  <0>1       -0.4697
     11 C10         7.3548   14.4573   18.0827 C.ar    1  <0>1       -0.0809
     12 C11         7.2456   14.4729   19.4700 C.ar    1  <0>1       -0.1534
     13 C12         6.2592   15.1992   20.0424 C.ar    1  <0>1       -0.1647
     14 S1          5.4294   15.8948   18.6238 S.2     1  <0>1        0.0580
     15 C13         6.4557   15.1808   17.3498 C.ar    1  <0>1       -0.1669
     16 F1         12.5845   10.6632   13.7883 F       1  <0>1       -0.1320
     17 H1          9.0404   13.3949   13.4057 H       1  <0>1        0.1435
     18 H2         10.8428   12.0621   12.4491 H       1  <0>1        0.1438
     19 H3         12.1501   10.8718   16.3244 H       1  <0>1        0.1498
     20 H4          7.8217   14.2172   15.4202 H       1  <0>1        0.1437
     21 H5          9.2577   12.9428   19.2547 H       1  <0>1        0.1641
     22 H6          7.9388   13.9131   20.0804 H       1  <0>1        0.1399
     23 H7          6.0294   15.3229   21.0904 H       1  <0>1        0.1905
     24 H8          6.3831   15.2893   16.2778 H       1  <0>1        0.1880
@<TRIPOS>BOND
     1     1     6   ar
     2     1     2   ar
     3     1    17    1
     4     2     3   ar
     5     2    18    1
     6     3     4   ar
     7     3    16    1
     8     4     5   ar
     9     4    19    1
    10     5    10   ar
    11     5     6   ar
    12     6     7   ar
    13     7     8   ar
    14     7    20    1
    15     8     9   ar
    16     8    11    1
    17     9    10   ar
    18     9    21    1
    19    11    15   ar
    20    11    12   ar
    21    12    13   ar
    22    12    22    1
    23    13    14   ar
    24    13    23    1
    25    14    15   ar
    26    15    24    1
@<TRIPOS>MOLECULE
ZINC03834022
 32 34 0 0 0
SMALL
USER_CHARGES

@<TRIPOS>ATOM
      1 C1         11.8084    8.5564   15.8952 C.3     1  <0>1        0.0219
      2 O1         11.9179    9.1865   14.6173 O.3     1  <0>1       -0.3007
      3 C2         11.2393   10.3516   14.4436 C.ar    1  <0>1        0.1255
      4 C3         10.4986   10.8611   15.4700 C.ar    1  <0>1       -0.1696
      5 C4          9.7970   12.0656   15.2903 C.ar    1  <0>1       -0.0897
      6 C5          9.0255   12.6178   16.3263 C.ar    1  <0>1       -0.0193
      7 C6          8.3588   13.8119   16.0782 C.ar    1  <0>1       -0.0747
      8 C7          8.4761   14.4201   14.8162 C.ar    1  <0>1        0.1529
      9 N1          9.2000   13.8880   13.8648 N.ar    1  <0>1       -0.4667
     10 C8          9.8645   12.7405   14.0443 C.ar    1  <0>1        0.1478
     11 C9         10.6365   12.1888   13.0084 C.ar    1  <0>1       -0.1734
     12 C10        11.3072   11.0175   13.2106 C.ar    1  <0>1        0.1458
     13 O2         12.0514   10.4891   12.2039 O.3     1  <0>1       -0.2998
     14 C11        12.0823   11.2121   10.9716 C.3     1  <0>1        0.0209
     15 C12         7.5335   14.4373   17.1324 C.ar    1  <0>1       -0.1034
     16 C13         6.5966   13.8623   17.9500 C.ar    1  <0>1       -0.0569
     17 C14         5.9454   14.6551   18.8705 C.ar    1  <0>1       -0.1544
     18 C15         6.2507   15.9763   18.9389 C.ar    1  <0>1       -0.1579
     19 S1          7.5038   16.1372   17.6775 S.2     1  <0>1        0.1026
     20 Cl1         6.2370   12.1681   17.8296 Cl      1  <0>1       -0.0522
     21 H1         12.1818    9.2305   16.6660 H       1  <0>1        0.0589
     22 H2         10.7635    8.3191   16.0950 H       1  <0>1        0.0587
     23 H3         12.3965    7.6385   15.8992 H       1  <0>1        0.1058
     24 H4         10.4515   10.3414   16.4155 H       1  <0>1        0.1467
     25 H5          8.9530   12.1294   17.2868 H       1  <0>1        0.1423
     26 H6          7.9565   15.3479   14.6274 H       1  <0>1        0.1623
     27 H7         10.6984   12.6900   12.0537 H       1  <0>1        0.1529
     28 H8         12.7106   10.6825   10.2554 H       1  <0>1        0.1062
     29 H9         11.0708   11.2970   10.5746 H       1  <0>1        0.0608
     30 H10        12.4894   12.2083   11.1450 H       1  <0>1        0.0608
     31 H11         5.2020   14.2309   19.5291 H       1  <0>1        0.1481
     32 H12         5.8439   16.7342   19.5919 H       1  <0>1        0.1978
@<TRIPOS>BOND
     1     1     2    1
     2     1    21    1
     3     1    22    1
     4     1    23    1
     5     2     3    1
     6     3    12   ar
     7     3     4   ar
     8     4     5   ar
     9     4    24    1
    10     5    10   ar
    11     5     6   ar
    12     6     7   ar
    13     6    25    1
    14     7     8   ar
    15     7    15    1
    16     8     9   ar
    17     8    26    1
    18     9    10   ar
    19    10    11   ar
    20    11    12   ar
    21    11    27    1
    22    12    13    1
    23    13    14    1
    24    14    28    1
    25    14    29    1
    26    14    30    1
    27    15    19   ar
    28    15    16   ar
    29    16    17   ar
    30    16    20    1
    31    17    18   ar
    32    17    31    1
    33    18    19   ar
    34    18    32    1
@<TRIPOS>MOLECULE
ZINC03834023
 24 26 0 0 0
SMALL
USER_CHARGES

@<TRIPOS>ATOM
      1 C1          6.6181   13.6811   20.6063 C.ar    1  <0>1       -0.0767
      2 C2          6.7029   14.3054   19.3993 C.ar    1  <0>1       -0.0989
      3 C3          7.4793   13.7412   18.3728 C.ar    1  <0>1        0.1462
      4 C4          8.1634   12.5238   18.6176 C.ar    1  <0>1       -0.1265
      5 C5          8.9358   11.9546   17.5909 C.ar    1  <0>1       -0.0472
      6 C6          9.0006   12.6239   16.3775 C.ar    1  <0>1       -0.0765
      7 C7          8.2944   13.8261   16.2120 C.ar    1  <0>1        0.1527
      8 N1          7.5763   14.3374   17.1793 N.ar    1  <0>1       -0.4666
      9 C8          9.8056   12.0704   15.2611 C.ar    1  <0>1       -0.0826
     10 C9          9.8739   12.7300   14.0377 C.ar    1  <0>1       -0.1526
     11 C10        10.6185   12.1945   13.0442 C.ar    1  <0>1       -0.1652
     12 S1         11.2621   10.7158   13.8086 S.2     1  <0>1        0.0602
     13 C11        10.5019   10.9037   15.4125 C.ar    1  <0>1       -0.1653
     14 C12         8.0537   11.9058   19.8767 C.ar    1  <0>1        0.1185
     15 C13         7.2900   12.4855   20.8469 C.ar    1  <0>1       -0.1484
     16 F1          8.7002   10.7453   20.1231 F       1  <0>1       -0.1302
     17 H1          6.0197   14.1209   21.3905 H       1  <0>1        0.1427
     18 H2          6.1744   15.2321   19.2310 H       1  <0>1        0.1443
     19 H3          9.4660   11.0262   17.7432 H       1  <0>1        0.1444
     20 H4          8.3452   14.3411   15.2641 H       1  <0>1        0.1656
     21 H5          9.3402   13.6563   13.8841 H       1  <0>1        0.1402
     22 H6         10.7822   12.5667   12.0436 H       1  <0>1        0.1909
     23 H7         10.5724   10.2614   16.2779 H       1  <0>1        0.1879
     24 H8          7.2052   12.0112   21.8135 H       1  <0>1        0.1428
@<TRIPOS>BOND
     1     1    15   ar
     2     1     2   ar
     3     1    17    1
     4     2     3   ar
     5     2    18    1
     6     3     8   ar
     7     3     4   ar
     8     4     5   ar
     9     4    14   ar
    10     5     6   ar
    11     5    19    1
    12     6     7   ar
    13     6     9    1
    14     7     8   ar
    15     7    20    1
    16     9    13   ar
    17     9    10   ar
    18    10    11   ar
    19    10    21    1
    20    11    12   ar
    21    11    22    1
    22    12    13   ar
    23    13    23    1
    24    14    15   ar
    25    14    16    1
    26    15    24    1
@<TRIPOS>MOLECULE
ZINC03834024
 35 37 0 0 0
SMALL
USER_CHARGES

@<TRIPOS>ATOM
      1 C1          7.8346   10.7540   22.2612 C.3     1  <0>1        0.0222
      2 O1          7.1284   11.9796   22.0576 O.3     1  <0>1       -0.3011
      3 C2          7.2448   12.5633   20.8353 C.ar    1  <0>1        0.1264
      4 C3          8.0122   11.9717   19.8749 C.ar    1  <0>1       -0.1733
      5 C4          8.1329   12.5753   18.6116 C.ar    1  <0>1       -0.0882
      6 C5          8.9100   11.9897   17.5979 C.ar    1  <0>1       -0.0447
      7 C6          8.9881   12.6438   16.3767 C.ar    1  <0>1       -0.1068
      8 C7          8.2896   13.8467   16.1904 C.ar    1  <0>1        0.1433
      9 N1          7.5663   14.3740   17.1456 N.ar    1  <0>1       -0.4677
     10 C8          7.4565   13.7935   18.3459 C.ar    1  <0>1        0.1422
     11 C9          6.6743   14.3764   19.3568 C.ar    1  <0>1       -0.1720
     12 C10         6.5748   13.7682   20.5746 C.ar    1  <0>1        0.1426
     13 O2          5.8162   14.3371   21.5477 O.3     1  <0>1       -0.3002
     14 C11         5.1577   15.5631   21.2233 C.3     1  <0>1        0.0212
     15 C12         9.7993   12.0723   15.2738 C.ar    1  <0>1       -0.0096
     16 C13         9.8713   12.7287   14.0462 C.ar    1  <0>1       -0.1211
     17 C14        10.6274   12.1940   13.0230 C.ar    1  <0>1       -0.0831
     18 C15        11.3135   11.0082   13.2127 C.ar    1  <0>1       -0.1521
     19 C16        11.2466   10.3510   14.4303 C.ar    1  <0>1        0.1051
     20 C17        10.4920   10.8784   15.4617 C.ar    1  <0>1       -0.1489
     21 F1         11.9193    9.1932   14.6100 F       1  <0>1       -0.1370
     22 H1          7.4839   10.0095   21.5465 H       1  <0>1        0.0587
     23 H2          8.9020   10.9215   22.1171 H       1  <0>1        0.0586
     24 H3          7.6566   10.3963   23.2753 H       1  <0>1        0.1058
     25 H4          8.5247   11.0444   20.0845 H       1  <0>1        0.1461
     26 H5          9.4343   11.0605   17.7656 H       1  <0>1        0.1416
     27 H6          8.3501   14.3491   15.2364 H       1  <0>1        0.1633
     28 H7          6.1525   15.3035   19.1707 H       1  <0>1        0.1522
     29 H8          5.9003   16.3143   20.9541 H       1  <0>1        0.0605
     30 H9          4.4829   15.4018   20.3826 H       1  <0>1        0.0605
     31 H10         4.5876   15.9086   22.0857 H       1  <0>1        0.1062
     32 H11         9.3324   13.6522   13.8945 H       1  <0>1        0.1355
     33 H12        10.6832   12.7026   12.0719 H       1  <0>1        0.1385
     34 H13        11.9036   10.5934   12.4089 H       1  <0>1        0.1381
     35 H14        10.4397   10.3661   16.4110 H       1  <0>1        0.1371
@<TRIPOS>BOND
     1     1     2    1
     2     1    22    1
     3     1    23    1
     4     1    24    1
     5     2     3    1
     6     3    12   ar
     7     3     4   ar
     8     4     5   ar
     9     4    25    1
    10     5    10   ar
    11     5     6   ar
    12     6     7   ar
    13     6    26    1
    14     7     8   ar
    15     7    15    1
    16     8     9   ar
    17     8    27    1
    18     9    10   ar
    19    10    11   ar
    20    11    12   ar
    21    11    28    1
    22    12    13    1
    23    13    14    1
    24    14    29    1
    25    14    30    1
    26    14    31    1
    27    15    20   ar
    28    15    16   ar
    29    16    17   ar
    30    16    32    1
    31    17    18   ar
    32    17    33    1
    33    18    19   ar
    34    18    34    1
    35    19    20   ar
    36    19    21    1
    37    20    35    1
@<TRIPOS>MOLECULE
ZINC03834025
 36 38 0 0 0
SMALL
USER_CHARGES

@<TRIPOS>ATOM
      1 C1          9.9492   12.7988   11.3795 C.3     1  <0>1        0.0225
      2 O1         10.8757   12.0507   12.1694 O.3     1  <0>1       -0.3014
      3 C2         10.7200   12.1038   13.5188 C.ar    1  <0>1        0.1263
      4 C3          9.7110   12.8506   14.0532 C.ar    1  <0>1       -0.1742
      5 C4          9.5503   12.9058   15.4482 C.ar    1  <0>1       -0.0864
      6 C5          8.5219   13.6651   16.0316 C.ar    1  <0>1       -0.0510
      7 C6          8.4223   13.6729   17.4156 C.ar    1  <0>1       -0.0994
      8 C7          9.3391   12.9338   18.1792 C.ar    1  <0>1        0.1392
      9 N1         10.2910   12.2326   17.6170 N.ar    1  <0>1       -0.4678
     10 C8         10.4378   12.1853   16.2881 C.ar    1  <0>1        0.1389
     11 C9         11.4661   11.4259   15.7057 C.ar    1  <0>1       -0.1707
     12 C10        11.5987   11.3903   14.3478 C.ar    1  <0>1        0.1402
     13 O2         12.5955   10.6534   13.7911 O.3     1  <0>1       -0.3008
     14 C11        13.4584    9.9483   14.6856 C.3     1  <0>1        0.0214
     15 C12         7.3549   14.4572   18.0832 C.ar    1  <0>1       -0.0505
     16 C13         6.4497   15.1946   17.3217 C.ar    1  <0>1       -0.0935
     17 C14         5.4552   15.9185   17.9451 C.ar    1  <0>1       -0.1408
     18 C15         5.3615   15.9219   19.3303 C.ar    1  <0>1        0.1091
     19 C16         6.2651   15.1930   20.0918 C.ar    1  <0>1       -0.1398
     20 C17         7.2585   14.4629   19.4739 C.ar    1  <0>1       -0.0919
     21 O3          4.3837   16.6402   19.9419 O.3     1  <0>1       -0.4991
     22 H1         10.1852   12.6699   10.3232 H       1  <0>1        0.1054
     23 H2          8.9373   12.4425   11.5717 H       1  <0>1        0.0584
     24 H3         10.0183   13.8547   11.6410 H       1  <0>1        0.0584
     25 H4          9.0394   13.3968   13.4075 H       1  <0>1        0.1456
     26 H5          7.8294   14.2255   15.4211 H       1  <0>1        0.1411
     27 H6          9.2546   12.9401   19.2558 H       1  <0>1        0.1617
     28 H7         12.1501   10.8712   16.3309 H       1  <0>1        0.1515
     29 H8         12.8718    9.2468   15.2789 H       1  <0>1        0.0603
     30 H9         14.2076    9.4020   14.1127 H       1  <0>1        0.1059
     31 H10        13.9540   10.6584   15.3476 H       1  <0>1        0.0602
     32 H11         6.5250   15.1959   16.2442 H       1  <0>1        0.1294
     33 H12         4.7510   16.4864   17.3554 H       1  <0>1        0.1324
     34 H13         6.1896   15.1976   21.1691 H       1  <0>1        0.1336
     35 H14         7.9613   13.8965   20.0668 H       1  <0>1        0.1329
     36 H15         4.6372   17.5492   20.1533 H       1  <0>1        0.3931
@<TRIPOS>BOND
     1     1     2    1
     2     1    22    1
     3     1    23    1
     4     1    24    1
     5     2     3    1
     6     3    12   ar
     7     3     4   ar
     8     4     5   ar
     9     4    25    1
    10     5    10   ar
    11     5     6   ar
    12     6     7   ar
    13     6    26    1
    14     7     8   ar
    15     7    15    1
    16     8     9   ar
    17     8    27    1
    18     9    10   ar
    19    10    11   ar
    20    11    12   ar
    21    11    28    1
    22    12    13    1
    23    13    14    1
    24    14    29    1
    25    14    30    1
    26    14    31    1
    27    15    20   ar
    28    15    16   ar
    29    16    17   ar
    30    16    32    1
    31    17    18   ar
    32    17    33    1
    33    18    19   ar
    34    18    21    1
    35    19    20   ar
    36    19    34    1
    37    20    35    1
    38    21    36    1
@<TRIPOS>MOLECULE
ZINC03834026
 32 34 0 0 0
SMALL
USER_CHARGES

@<TRIPOS>ATOM
      1 C1         12.7472    9.2609   12.4451 C.3     1  <0>1        0.0237
      2 O1         12.0584   10.4877   12.1952 O.3     1  <0>1       -0.3111
      3 C2         11.3194   10.9987   13.2140 C.ar    1  <0>1        0.1929
      4 C3         11.2655   10.3292   14.4164 C.ar    1  <0>1       -0.2402
      5 C4         10.5035   10.8533   15.4728 C.ar    1  <0>1        0.1970
      6 C5          9.7995   12.0688   15.2790 C.ar    1  <0>1       -0.1450
      7 C6          9.0376   12.5929   16.3351 C.ar    1  <0>1       -0.0149
      8 C7          9.0059   11.8868   17.5297 C.ar    1  <0>1       -0.1087
      9 C8          9.7335   10.6930   17.6468 C.ar    1  <0>1        0.1650
     10 N1         10.4382   10.2198   16.6497 N.ar    1  <0>1       -0.4824
     11 C9          8.2119   12.3934   18.6762 C.ar    1  <0>1       -0.0741
     12 C10         8.1761   11.6965   19.8802 C.ar    1  <0>1       -0.1532
     13 C11         7.4410   12.1899   20.9022 C.ar    1  <0>1       -0.1661
     14 S1          6.7607   13.6802   20.1940 S.2     1  <0>1        0.0511
     15 C12         7.5037   13.5581   18.5756 C.ar    1  <0>1       -0.1696
     16 C13         9.8742   12.7306   14.0359 C.ar    1  <0>1        0.1949
     17 C14        10.6243   12.1956   13.0280 C.ar    1  <0>1       -0.2448
     18 O2          9.2028   13.8946   13.8420 O.3     1  <0>1       -0.3062
     19 C15         9.3255   14.5080   12.5572 C.3     1  <0>1        0.0222
     20 H1         13.4436    9.3972   13.2724 H       1  <0>1        0.0612
     21 H2         12.0259    8.4850   12.7015 H       1  <0>1        0.0612
     22 H3         13.2974    8.9646   11.5520 H       1  <0>1        0.1043
     23 H4         11.8084    9.4046   14.5466 H       1  <0>1        0.1438
     24 H5          8.4896   13.5164   16.2205 H       1  <0>1        0.1446
     25 H6          9.7082   10.1492   18.5796 H       1  <0>1        0.1624
     26 H7          8.7274   10.7752   19.9966 H       1  <0>1        0.1389
     27 H8          7.3014   11.7856   21.8939 H       1  <0>1        0.1894
     28 H9          7.4151   14.2295   17.7344 H       1  <0>1        0.1873
     29 H10        10.6808   12.7037   12.0768 H       1  <0>1        0.1443
     30 H11        10.3730   14.7382   12.3631 H       1  <0>1        0.0625
     31 H12         8.9557   13.8255   11.7920 H       1  <0>1        0.0625
     32 H13         8.7413   15.4280   12.5365 H       1  <0>1        0.1071
@<TRIPOS>BOND
     1     1     2    1
     2     1    20    1
     3     1    21    1
     4     1    22    1
     5     2     3    1
     6     3    17   ar
     7     3     4   ar
     8     4     5   ar
     9     4    23    1
    10     5    10   ar
    11     5     6   ar
    12     6     7   ar
    13     6    16   ar
    14     7     8   ar
    15     7    24    1
    16     8     9   ar
    17     8    11    1
    18     9    10   ar
    19     9    25    1
    20    11    15   ar
    21    11    12   ar
    22    12    13   ar
    23    12    26    1
    24    13    14   ar
    25    13    27    1
    26    14    15   ar
    27    15    28    1
    28    16    17   ar
    29    16    18    1
    30    17    29    1
    31    18    19    1
    32    19    30    1
    33    19    31    1
    34    19    32    1
@<TRIPOS>MOLECULE
ZINC03834028
 35 37 0 0 0
SMALL
USER_CHARGES

@<TRIPOS>ATOM
      1 C1          9.9488   12.7984   11.3794 C.3     1  <0>1        0.0224
      2 O1         10.8755   12.0505   12.1694 O.3     1  <0>1       -0.3012
      3 C2         10.7200   12.1038   13.5188 C.ar    1  <0>1        0.1267
      4 C3          9.7110   12.8506   14.0532 C.ar    1  <0>1       -0.1742
      5 C4          9.5506   12.9060   15.4482 C.ar    1  <0>1       -0.0867
      6 C5          8.5220   13.6652   16.0316 C.ar    1  <0>1       -0.0492
      7 C6          8.4190   13.6683   17.4153 C.ar    1  <0>1       -0.1012
      8 C7          9.3392   12.9338   18.1791 C.ar    1  <0>1        0.1398
      9 N1         10.2910   12.2326   17.6170 N.ar    1  <0>1       -0.4673
     10 C8         10.4379   12.1855   16.2881 C.ar    1  <0>1        0.1399
     11 C9         11.4663   11.4260   15.7056 C.ar    1  <0>1       -0.1711
     12 C10        11.5990   11.3906   14.3478 C.ar    1  <0>1        0.1411
     13 O2         12.5959   10.6540   13.7910 O.3     1  <0>1       -0.3006
     14 C11        13.4591    9.9492   14.6856 C.3     1  <0>1        0.0213
     15 C12         7.3475   14.4475   18.0828 C.ar    1  <0>1       -0.0510
     16 C13         6.4388   15.1806   17.3217 C.ar    1  <0>1       -0.0820
     17 C14         5.4407   15.8996   17.9466 C.ar    1  <0>1       -0.1484
     18 C15         5.3476   15.9024   19.3290 C.ar    1  <0>1        0.1016
     19 C16         6.2521   15.1794   20.0897 C.ar    1  <0>1       -0.1474
     20 C17         7.2502   14.4533   19.4732 C.ar    1  <0>1       -0.0803
     21 F1          4.3719   16.6121   19.9369 F       1  <0>1       -0.1368
     22 H1          8.9369   12.4419   11.5719 H       1  <0>1        0.0585
     23 H2         10.0179   13.8543   11.6408 H       1  <0>1        0.0585
     24 H3         10.1847   12.6693   10.3231 H       1  <0>1        0.1056
     25 H4          9.0388   13.3961   13.4075 H       1  <0>1        0.1459
     26 H5          7.8294   14.2255   15.4211 H       1  <0>1        0.1416
     27 H6          9.2573   12.9436   19.2560 H       1  <0>1        0.1620
     28 H7         12.1502   10.8712   16.3310 H       1  <0>1        0.1518
     29 H8         13.9543   10.6595   15.3476 H       1  <0>1        0.0604
     30 H9         12.8728    9.2476   15.2788 H       1  <0>1        0.0604
     31 H10        14.2085    9.4031   14.1127 H       1  <0>1        0.1060
     32 H11         6.5133   15.1825   16.2443 H       1  <0>1        0.1352
     33 H12         4.7336   16.4646   17.3574 H       1  <0>1        0.1395
     34 H13         6.1760   15.1844   21.1670 H       1  <0>1        0.1407
     35 H14         7.9553   13.8905   20.0669 H       1  <0>1        0.1386
@<TRIPOS>BOND
     1     1     2    1
     2     1    22    1
     3     1    23    1
     4     1    24    1
     5     2     3    1
     6     3    12   ar
     7     3     4   ar
     8     4     5   ar
     9     4    25    1
    10     5    10   ar
    11     5     6   ar
    12     6     7   ar
    13     6    26    1
    14     7     8   ar
    15     7    15    1
    16     8     9   ar
    17     8    27    1
    18     9    10   ar
    19    10    11   ar
    20    11    12   ar
    21    11    28    1
    22    12    13    1
    23    13    14    1
    24    14    29    1
    25    14    30    1
    26    14    31    1
    27    15    20   ar
    28    15    16   ar
    29    16    17   ar
    30    16    32    1
    31    17    18   ar
    32    17    33    1
    33    18    19   ar
    34    18    21    1
    35    19    20   ar
    36    19    34    1
    37    20    35    1
@<TRIPOS>MOLECULE
ZINC03834029
 37 39 0 0 0
SMALL
USER_CHARGES

@<TRIPOS>ATOM
      1 C1         12.4474    5.7481   15.2712 C.3     1  <0>1        0.0220
      2 O1         13.2958    6.8976   15.2430 O.3     1  <0>1       -0.3008
      3 C2         12.7007    8.0984   15.0156 C.ar    1  <0>1        0.1257
      4 C3         11.3507    8.1583   14.8278 C.ar    1  <0>1       -0.1707
      5 C4         10.7354    9.4002   14.5931 C.ar    1  <0>1       -0.0907
      6 C5          9.3485    9.4968   14.3954 C.ar    1  <0>1       -0.0305
      7 C6          8.8074   10.7589   14.1677 C.ar    1  <0>1       -0.0403
      8 C7          9.6569   11.8803   14.1380 C.ar    1  <0>1        0.1552
      9 N1         10.9459   11.7667   14.3302 N.ar    1  <0>1       -0.4682
     10 C8         11.5228   10.5799   14.5535 C.ar    1  <0>1        0.1458
     11 C9         12.9099   10.4832   14.7514 C.ar    1  <0>1       -0.1730
     12 C10        13.4809    9.2640   14.9769 C.ar    1  <0>1        0.1450
     13 O2         14.8236    9.1779   15.1670 O.3     1  <0>1       -0.2999
     14 C11        15.5654   10.3983   15.1164 C.3     1  <0>1        0.0209
     15 C12         7.3992   10.9139   13.9594 C.1     1  <0>1       -0.1164
     16 C13         6.2446   11.0412   13.7887 C.1     1  <0>1       -0.1022
     17 C14         4.8363   11.1962   13.5804 C.ar    1  <0>1        0.0082
     18 C15         4.2958   12.4645   13.3520 C.ar    1  <0>1       -0.0935
     19 C16         2.9387   12.6061   13.1519 C.ar    1  <0>1       -0.1192
     20 C17         2.1126   11.4962   13.1773 C.ar    1  <0>1       -0.1075
     21 C18         2.6406   10.2371   13.4029 C.ar    1  <0>1       -0.1189
     22 C19         3.9959   10.0800   13.6042 C.ar    1  <0>1       -0.0927
     23 H1         13.0476    4.8582   15.4610 H       1  <0>1        0.1058
     24 H2         11.7067    5.8624   16.0627 H       1  <0>1        0.0588
     25 H3         11.9409    5.6467   14.3114 H       1  <0>1        0.0588
     26 H4         10.7580    7.2561   14.8589 H       1  <0>1        0.1470
     27 H5          8.7207    8.6183   14.4191 H       1  <0>1        0.1436
     28 H6          9.2344   12.8577   13.9569 H       1  <0>1        0.1648
     29 H7         13.5234   11.3716   14.7251 H       1  <0>1        0.1530
     30 H8         15.4372   10.8611   14.1379 H       1  <0>1        0.0609
     31 H9         15.2030   11.0761   15.8893 H       1  <0>1        0.0609
     32 H10        16.6219   10.1883   15.2835 H       1  <0>1        0.1063
     33 H11         4.9393   13.3317   13.3327 H       1  <0>1        0.1272
     34 H12         2.5194   13.5856   12.9752 H       1  <0>1        0.1294
     35 H13         1.0499   11.6137   13.0247 H       1  <0>1        0.1273
     36 H14         1.9898    9.3755   13.4214 H       1  <0>1        0.1297
     37 H15         4.4067    9.0968   13.7798 H       1  <0>1        0.1283
@<TRIPOS>BOND
     1     1     2    1
     2     1    23    1
     3     1    24    1
     4     1    25    1
     5     2     3    1
     6     3    12   ar
     7     3     4   ar
     8     4     5   ar
     9     4    26    1
    10     5    10   ar
    11     5     6   ar
    12     6     7   ar
    13     6    27    1
    14     7     8   ar
    15     7    15    1
    16     8     9   ar
    17     8    28    1
    18     9    10   ar
    19    10    11   ar
    20    11    12   ar
    21    11    29    1
    22    12    13    1
    23    13    14    1
    24    14    30    1
    25    14    31    1
    26    14    32    1
    27    15    16    3
    28    16    17    1
    29    17    22   ar
    30    17    18   ar
    31    18    19   ar
    32    18    33    1
    33    19    20   ar
    34    19    34    1
    35    20    21   ar
    36    20    35    1
    37    21    22   ar
    38    21    36    1
    39    22    37    1
@<TRIPOS>MOLECULE
ZINC03834030
 40 42 0 0 0
SMALL
USER_CHARGES

@<TRIPOS>ATOM
      1 C1         14.9047   14.0842   13.2360 C.3     1  <0>1        0.0233
      2 O1         16.0780   13.3735   12.8354 O.3     1  <0>1       -0.3026
      3 C2         16.0844   12.0292   13.0375 C.ar    1  <0>1        0.1378
      4 C3         14.9978   11.4260   13.6008 C.ar    1  <0>1       -0.1918
      5 C4         15.0043   10.0368   13.8097 C.ar    1  <0>1       -0.0348
      6 C5         13.9017    9.3821   14.3872 C.ar    1  <0>1       -0.1623
      7 C6         13.9774    8.0133   14.5625 C.ar    1  <0>1        0.1662
      8 C7         15.1314    7.3278   14.1665 C.ar    1  <0>1        0.0779
      9 N1         16.1507    7.9515   13.6293 N.ar    1  <0>1       -0.4356
     10 C8         16.1389    9.2741   13.4338 C.ar    1  <0>1        0.0889
     11 C9         17.2418    9.9262   12.8554 C.ar    1  <0>1       -0.1502
     12 C10        17.2079   11.2765   12.6643 C.ar    1  <0>1        0.1147
     13 O2         18.2772   11.9012   12.1042 O.3     1  <0>1       -0.3045
     14 C11        19.3919   11.0824   11.7449 C.3     1  <0>1        0.0233
     15 N2         12.9096    7.3183   15.1375 N.pl3   1  <0>1       -0.7356
     16 C12        12.9941    5.8673   15.3215 C.3     1  <0>1        0.1632
     17 C13        11.7225    5.3665   15.9564 C.ar    1  <0>1       -0.1109
     18 C14        11.6181    5.2969   17.3330 C.ar    1  <0>1       -0.0998
     19 C15        10.4498    4.8425   17.9155 C.ar    1  <0>1       -0.1219
     20 C16         9.3896    4.4474   17.1212 C.ar    1  <0>1       -0.1103
     21 C17         9.4960    4.5117   15.7444 C.ar    1  <0>1       -0.1219
     22 C18        10.6624    4.9714   15.1620 C.ar    1  <0>1       -0.0999
     23 H1         14.0434   13.7016   12.6884 H       1  <0>1        0.0577
     24 H2         14.7449   13.9480   14.3057 H       1  <0>1        0.0577
     25 H3         15.0308   15.1451   13.0196 H       1  <0>1        0.1038
     26 H4         14.1373   12.0135   13.8849 H       1  <0>1        0.1420
     27 H5         13.0217    9.9328   14.6853 H       1  <0>1        0.1340
     28 H6         15.1830    6.2583   14.3072 H       1  <0>1        0.1563
     29 H7         18.1137    9.3598   12.5634 H       1  <0>1        0.1475
     30 H8         19.7772   10.5827   12.6337 H       1  <0>1        0.0580
     31 H9         19.0746   10.3357   11.0170 H       1  <0>1        0.0580
     32 H10        20.1743   11.7044   11.3100 H       1  <0>1        0.1032
     33 H11        12.1125    7.7967   15.4147 H       1  <0>1        0.4031
     34 H12        13.1309    5.3857   14.3532 H       1  <0>1        0.0717
     35 H13        13.8400    5.6316   15.9672 H       1  <0>1        0.0718
     36 H14        12.4480    5.6014   17.9536 H       1  <0>1        0.1241
     37 H15        10.3666    4.7926   18.9912 H       1  <0>1        0.1249
     38 H16         8.4782    4.0888   17.5762 H       1  <0>1        0.1242
     39 H17         8.6678    4.2030   15.1238 H       1  <0>1        0.1249
     40 H18        10.7455    5.0216   14.0864 H       1  <0>1        0.1241
@<TRIPOS>BOND
     1     1     2    1
     2     1    23    1
     3     1    24    1
     4     1    25    1
     5     2     3    1
     6     3    12   ar
     7     3     4   ar
     8     4     5   ar
     9     4    26    1
    10     5    10   ar
    11     5     6   ar
    12     6     7   ar
    13     6    27    1
    14     7     8   ar
    15     7    15    1
    16     8     9   ar
    17     8    28    1
    18     9    10   ar
    19    10    11   ar
    20    11    12   ar
    21    11    29    1
    22    12    13    1
    23    13    14    1
    24    14    30    1
    25    14    31    1
    26    14    32    1
    27    15    16    1
    28    15    33    1
    29    16    17    1
    30    16    34    1
    31    16    35    1
    32    17    22   ar
    33    17    18   ar
    34    18    19   ar
    35    18    36    1
    36    19    20   ar
    37    19    37    1
    38    20    21   ar
    39    20    38    1
    40    21    22   ar
    41    21    39    1
    42    22    40    1
@<TRIPOS>MOLECULE
ZINC03834031
 39 41 0 0 0
SMALL
USER_CHARGES

@<TRIPOS>ATOM
      1 C1         14.8292   14.2498   16.0020 C.3     1  <0>1        0.0220
      2 O1         15.8363   13.6249   16.8002 O.3     1  <0>1       -0.3008
      3 C2         15.8027   12.2685   16.8855 C.ar    1  <0>1        0.1370
      4 C3         14.8332   11.5743   16.2222 C.ar    1  <0>1       -0.1835
      5 C4         14.7988   10.1728   16.3097 C.ar    1  <0>1       -0.0494
      6 C5         13.8140    9.4244   15.6400 C.ar    1  <0>1       -0.1055
      7 C6         13.8390    8.0604   15.7693 C.ar    1  <0>1        0.0760
      8 C7         14.8231    7.4546   16.5552 C.ar    1  <0>1        0.0609
      9 N1         15.7405    8.1585   17.1725 N.ar    1  <0>1       -0.4356
     10 C8         15.7708    9.4925   17.0860 C.ar    1  <0>1        0.1059
     11 C9         16.7564   10.2370   17.7566 C.ar    1  <0>1       -0.1577
     12 C10        16.7656   11.5974   17.6540 C.ar    1  <0>1        0.1274
     13 O2         17.7208   12.3122   18.3051 O.3     1  <0>1       -0.3019
     14 C11        18.6740   11.5736   19.0718 C.3     1  <0>1        0.0220
     15 O3         12.9055    7.2989   15.1394 O.3     1  <0>1       -0.3022
     16 C12        12.9935    5.8840   15.3194 C.3     1  <0>1        0.0978
     17 C13        11.8849    5.2102   14.5525 C.ar    1  <0>1       -0.0993
     18 C14        10.6670    4.9741   15.1622 C.ar    1  <0>1       -0.0946
     19 C15         9.6484    4.3607   14.4571 C.ar    1  <0>1       -0.1229
     20 C16         9.8514    3.9737   13.1456 C.ar    1  <0>1       -0.1078
     21 C17        11.0711    4.2047   12.5377 C.ar    1  <0>1       -0.1229
     22 C18        12.0879    4.8232   13.2410 C.ar    1  <0>1       -0.0946
     23 H1         14.9037   13.8900   14.9758 H       1  <0>1        0.0590
     24 H2         13.8450   14.0057   16.4020 H       1  <0>1        0.0590
     25 H3         14.9706   15.3305   16.0192 H       1  <0>1        0.1054
     26 H4         14.0960   12.0997   15.6332 H       1  <0>1        0.1466
     27 H5         13.0589    9.9114   15.0407 H       1  <0>1        0.1457
     28 H6         14.8303    6.3791   16.6531 H       1  <0>1        0.1625
     29 H7         17.5039    9.7337   18.3519 H       1  <0>1        0.1507
     30 H8         18.1565   11.0048   19.8444 H       1  <0>1        0.0593
     31 H9         19.2148   10.8896   18.4179 H       1  <0>1        0.0593
     32 H10        19.3776   12.2631   19.5383 H       1  <0>1        0.1051
     33 H11        13.9567    5.5301   14.9520 H       1  <0>1        0.0751
     34 H12        12.8990    5.6461   16.3790 H       1  <0>1        0.0751
     35 H13        10.5099    5.2724   16.1883 H       1  <0>1        0.1248
     36 H14         8.6953    4.1806   14.9320 H       1  <0>1        0.1263
     37 H15         9.0567    3.4912   12.5959 H       1  <0>1        0.1252
     38 H16        11.2297    3.9025   11.5131 H       1  <0>1        0.1262
     39 H17        13.0408    5.0037   12.7661 H       1  <0>1        0.1248
@<TRIPOS>BOND
     1     1     2    1
     2     1    23    1
     3     1    24    1
     4     1    25    1
     5     2     3    1
     6     3    12   ar
     7     3     4   ar
     8     4     5   ar
     9     4    26    1
    10     5    10   ar
    11     5     6   ar
    12     6     7   ar
    13     6    27    1
    14     7     8   ar
    15     7    15    1
    16     8     9   ar
    17     8    28    1
    18     9    10   ar
    19    10    11   ar
    20    11    12   ar
    21    11    29    1
    22    12    13    1
    23    13    14    1
    24    14    30    1
    25    14    31    1
    26    14    32    1
    27    15    16    1
    28    16    17    1
    29    16    33    1
    30    16    34    1
    31    17    22   ar
    32    17    18   ar
    33    18    19   ar
    34    18    35    1
    35    19    20   ar
    36    19    36    1
    37    20    21   ar
    38    20    37    1
    39    21    22   ar
    40    21    38    1
    41    22    39    1
@<TRIPOS>MOLECULE
ZINC03834032
 41 43 0 0 0
SMALL
USER_CHARGES

@<TRIPOS>ATOM
      1 C1         10.9585    5.2829   15.2757 C.3     1  <0>1       -0.0375
      2 C2         12.2925    5.9487   15.4959 C.ar    1  <0>1       -0.0223
      3 C3         13.4561    5.3394   15.9688 C.ar    1  <0>1       -0.0231
      4 C4         14.4300    6.2819   16.0219 C.ar    1  <0>1        0.0167
      5 N1         13.9228    7.4650   15.5928 N.ar    1  <0>1       -0.3581
      6 H1         14.4114    8.3004   15.5285 H       1  <0>1        0.1656
      7 C5         12.5959    7.2821   15.2670 C.ar    1  <0>1        0.0434
      8 C6         11.7113    8.2684   14.7840 C.2     1  <0>1       -0.0254
      9 C7         11.8394    9.5779   15.2063 C.2     1  <0>1        0.0479
     10 C8         11.1097   10.7618   14.7012 C.ar    1  <0>1        0.0084
     11 C9         10.1385   10.9370   13.7206 C.ar    1  <0>1       -0.0521
     12 C10         9.6366   12.1984   13.4723 C.ar    1  <0>1       -0.0611
     13 C11        10.0982   13.2847   14.1973 C.ar    1  <0>1       -0.0600
     14 C12        11.0613   13.1217   15.1720 C.ar    1  <0>1       -0.0399
     15 C13        11.5797   11.8586   15.4365 C.ar    1  <0>1        0.0416
     16 N2         12.5362   11.4224   16.3447 N.am    1  <0>1       -0.2809
     17 C14        12.7246   10.0946   16.2580 C.2     1  <0>1        0.2490
     18 O1         13.4967    9.4356   16.9315 O.2     1  <0>1       -0.2698
     19 C15        15.8478    6.0512   16.4774 C.3     1  <0>1       -0.0242
     20 C16        13.6042    3.8896   16.3524 C.3     1  <0>1       -0.0157
     21 C17        14.0375    3.0800   15.1286 C.3     1  <0>1        0.0488
     22 C18        14.1856    1.6301   15.5122 C.2     1  <0>1        0.3050
     23 O2         13.9671    1.2804   16.6479 O.2     1  <0>1       -0.2510
     24 H2         10.9096    4.8952   14.2582 H       1  <0>1        0.0278
     25 H3         10.8409    4.4622   15.9833 H       1  <0>1        0.0278
     26 H4         10.1605    6.0097   15.4263 H       1  <0>1        0.0278
     27 H5         10.9337    8.0003   14.0842 H       1  <0>1        0.0646
     28 H6          9.7785   10.0894   13.1563 H       1  <0>1        0.0624
     29 H7          8.8825   12.3387   12.7120 H       1  <0>1        0.0618
     30 H8          9.7009   14.2689   13.9974 H       1  <0>1        0.0618
     31 H9         11.4132   13.9764   15.7305 H       1  <0>1        0.0636
     32 H10        13.0056   12.0018   16.9652 H       1  <0>1        0.1552
     33 H11        16.4624    5.7680   15.6229 H       1  <0>1        0.0292
     34 H12        16.2408    6.9664   16.9201 H       1  <0>1        0.0292
     35 H13        15.8658    5.2522   17.2186 H       1  <0>1        0.0292
     36 H14        14.3570    3.7959   17.1352 H       1  <0>1        0.0319
     37 H15        12.6499    3.5114   16.7190 H       1  <0>1        0.0319
     38 H16        13.2847    3.1736   14.3459 H       1  <0>1        0.0381
     39 H17        14.9918    3.4582   14.7621 H       1  <0>1        0.0381
     40 O3         14.5604    0.7274   14.5922 O.3     1  <0>1       -0.4806
     41 H          14.7299    0.9986   13.7115 H       1  <0>1        0.2951
@<TRIPOS>BOND
     1     1     2    1
     2     1    24    1
     3     1    25    1
     4     1    26    1
     5     2     7   ar
     6     2     3   ar
     7     3     4   ar
     8     3    20    1
     9     4     5   ar
    10     4    19    1
    11     5     6    1
    12     5     7   ar
    13     7     8    1
    14     8     9    2
    15     8    27    1
    16     9    17    1
    17     9    10    1
    18    10    15   ar
    19    10    11   ar
    20    11    12   ar
    21    11    28    1
    22    12    13   ar
    23    12    29    1
    24    13    14   ar
    25    13    30    1
    26    14    15   ar
    27    14    31    1
    28    15    16    1
    29    16    17   am
    30    16    32    1
    31    17    18    2
    32    19    33    1
    33    19    34    1
    34    19    35    1
    35    20    21    1
    36    20    36    1
    37    20    37    1
    38    21    22    1
    39    21    38    1
    40    21    39    1
    41    22    23    2
    42    22    40    1
    43    40    41    1
@<TRIPOS>MOLECULE
ZINC03834033
 41 43 0 0 0
SMALL
USER_CHARGES

@<TRIPOS>ATOM
      1 C1         11.0570    4.7468   15.2342 C.3     1  <0>1       -0.0375
      2 C2         12.1802    5.7515   15.2422 C.ar    1  <0>1       -0.0223
      3 C3         13.5356    5.4795   15.4373 C.ar    1  <0>1       -0.0231
      4 C4         14.2120    6.6532   15.3680 C.ar    1  <0>1        0.0167
      5 N1         13.3288    7.6587   15.1446 N.ar    1  <0>1       -0.3581
      6 H1         13.5517    8.5987   15.0566 H       1  <0>1        0.1656
      7 C5         12.0621    7.1213   15.0632 C.ar    1  <0>1        0.0434
      8 C6         10.8659    7.8337   14.8390 C.2     1  <0>1       -0.0254
      9 C7         10.7205    9.1141   15.3379 C.2     1  <0>1        0.0479
     10 C8          9.6154   10.0622   15.0747 C.ar    1  <0>1        0.0094
     11 C9          8.4516    9.9839   14.3164 C.ar    1  <0>1       -0.0381
     12 C10         7.5898   11.0619   14.2717 C.ar    1  <0>1        0.0186
     13 C11         7.8816   12.2144   14.9841 C.ar    1  <0>1       -0.0460
     14 C12         9.0306   12.2993   15.7438 C.ar    1  <0>1       -0.0388
     15 C13         9.9105   11.2239   15.8012 C.ar    1  <0>1        0.0416
     16 N2         11.1138   11.0477   16.4738 N.am    1  <0>1       -0.2809
     17 C14        11.6324    9.8305   16.2387 C.2     1  <0>1        0.2490
     18 O1         12.6765    9.3974   16.6931 O.2     1  <0>1       -0.2698
     19 Br1         6.0101   10.9659   13.2368 Br      1  <0>1       -0.0503
     20 C15        15.7025    6.8149   15.5207 C.3     1  <0>1       -0.0242
     21 C16        14.1410    4.1207   15.6785 C.3     1  <0>1       -0.0157
     22 C17        14.5150    3.4839   14.3386 C.3     1  <0>1        0.0488
     23 C18        15.1204    2.1251   14.5798 C.2     1  <0>1        0.3050
     24 O2         15.2404    1.7087   15.7076 O.2     1  <0>1       -0.2510
     25 H2         10.9032    4.3819   14.2187 H       1  <0>1        0.0278
     26 H3         10.1430    5.2207   15.5922 H       1  <0>1        0.0278
     27 H4         11.3124    3.9112   15.8857 H       1  <0>1        0.0278
     28 H5         10.0635    7.3786   14.2774 H       1  <0>1        0.0646
     29 H6          8.2254    9.0854   13.7614 H       1  <0>1        0.0635
     30 H7          7.2033   13.0538   14.9447 H       1  <0>1        0.0629
     31 H8          9.2470   13.2027   16.2945 H       1  <0>1        0.0637
     32 H9         11.5266   11.7179   17.0407 H       1  <0>1        0.1552
     33 H10        15.9447    6.9767   16.5710 H       1  <0>1        0.0292
     34 H11        16.2038    5.9141   15.1668 H       1  <0>1        0.0292
     35 H12        16.0369    7.6709   14.9347 H       1  <0>1        0.0292
     36 H13        15.0350    4.2252   16.2932 H       1  <0>1        0.0319
     37 H14        13.4184    3.4871   16.1928 H       1  <0>1        0.0319
     38 H15        13.6210    3.3794   13.7238 H       1  <0>1        0.0381
     39 H16        15.2376    4.1175   13.8242 H       1  <0>1        0.0381
     40 O3         15.5263    1.3773   13.5416 O.3     1  <0>1       -0.4806
     41 H          15.4332    1.7002   12.6669 H       1  <0>1        0.2951
@<TRIPOS>BOND
     1     1     2    1
     2     1    25    1
     3     1    26    1
     4     1    27    1
     5     2     7   ar
     6     2     3   ar
     7     3     4   ar
     8     3    21    1
     9     4     5   ar
    10     4    20    1
    11     5     6    1
    12     5     7   ar
    13     7     8    1
    14     8     9    2
    15     8    28    1
    16     9    17    1
    17     9    10    1
    18    10    15   ar
    19    10    11   ar
    20    11    12   ar
    21    11    29    1
    22    12    13   ar
    23    12    19    1
    24    13    14   ar
    25    13    30    1
    26    14    15   ar
    27    14    31    1
    28    15    16    1
    29    16    17   am
    30    16    32    1
    31    17    18    2
    32    20    33    1
    33    20    34    1
    34    20    35    1
    35    21    22    1
    36    21    36    1
    37    21    37    1
    38    22    23    1
    39    22    38    1
    40    22    39    1
    41    23    24    2
    42    23    40    1
    43    40    41    1
@<TRIPOS>MOLECULE
ZINC03834034
 32 34 0 0 0
SMALL
USER_CHARGES

@<TRIPOS>ATOM
      1 C1         11.8101    8.5574   15.8958 C.3     1  <0>1        0.0220
      2 O1         11.9193    9.1875   14.6180 O.3     1  <0>1       -0.3009
      3 C2         11.2401   10.3522   14.4439 C.ar    1  <0>1        0.1273
      4 C3         10.4992   10.8615   15.4702 C.ar    1  <0>1       -0.1732
      5 C4          9.7970   12.0656   15.2902 C.ar    1  <0>1       -0.0847
      6 C5          9.0245   12.6173   16.3259 C.ar    1  <0>1       -0.0460
      7 C6          8.3565   13.8104   16.0769 C.ar    1  <0>1       -0.0605
      8 C7          8.4692   14.4156   14.8133 C.ar    1  <0>1        0.1509
      9 N1          9.1983   13.8869   13.8640 N.ar    1  <0>1       -0.4648
     10 C8          9.8645   12.7405   14.0443 C.ar    1  <0>1        0.1412
     11 C9         10.6365   12.1889   13.0084 C.ar    1  <0>1       -0.1710
     12 C10        11.3078   11.0179   13.2108 C.ar    1  <0>1        0.1425
     13 O2         12.0524   10.4898   12.2043 O.3     1  <0>1       -0.3002
     14 C11        12.0831   11.2125   10.9719 C.3     1  <0>1        0.0211
     15 C12         7.5293   14.4349   17.1307 C.ar    1  <0>1       -0.1082
     16 C13         6.8019   15.5941   17.0832 C.ar    1  <0>1       -0.1437
     17 C14         6.0963   15.9795   18.2021 C.ar    1  <0>1       -0.1547
     18 C15         6.1511   15.2070   19.3172 C.ar    1  <0>1       -0.1694
     19 S1          7.2189   13.8742   18.7971 S.2     1  <0>1        0.0545
     20 H1         10.7652    8.3197   16.0956 H       1  <0>1        0.0588
     21 H2         12.3986    7.6399   15.9001 H       1  <0>1        0.1058
     22 H3         12.1831    9.2318   16.6666 H       1  <0>1        0.0588
     23 H4         10.4522   10.3418   16.4158 H       1  <0>1        0.1466
     24 H5          8.9521   12.1292   17.2865 H       1  <0>1        0.1396
     25 H6          7.9451   15.3406   14.6228 H       1  <0>1        0.1631
     26 H7         10.6982   12.6899   12.0536 H       1  <0>1        0.1525
     27 H8         12.7116   10.6832   10.2558 H       1  <0>1        0.1061
     28 H9         11.0715   11.2967   10.5748 H       1  <0>1        0.0606
     29 H10        12.4896   12.2090   11.1452 H       1  <0>1        0.0606
     30 H11         6.7788   16.1929   16.1846 H       1  <0>1        0.1380
     31 H12         5.5098   16.8863   18.1933 H       1  <0>1        0.1385
     32 H13         5.6688   15.3574   20.2717 H       1  <0>1        0.1889
@<TRIPOS>BOND
     1     1     2    1
     2     1    20    1
     3     1    21    1
     4     1    22    1
     5     2     3    1
     6     3    12   ar
     7     3     4   ar
     8     4     5   ar
     9     4    23    1
    10     5    10   ar
    11     5     6   ar
    12     6     7   ar
    13     6    24    1
    14     7     8   ar
    15     7    15    1
    16     8     9   ar
    17     8    25    1
    18     9    10   ar
    19    10    11   ar
    20    11    12   ar
    21    11    26    1
    22    12    13    1
    23    13    14    1
    24    14    27    1
    25    14    28    1
    26    14    29    1
    27    15    19   ar
    28    15    16   ar
    29    16    17   ar
    30    16    30    1
    31    17    18   ar
    32    17    31    1
    33    18    19   ar
    34    18    32    1
@<TRIPOS>MOLECULE
ZINC03834035
 55 58 0 0 0
SMALL
USER_CHARGES

@<TRIPOS>ATOM
      1 C1          9.9565   14.3789   19.5517 C.3     1  <0>1       -0.0375
      2 C2          9.1873   14.2218   18.2654 C.ar    1  <0>1       -0.0223
      3 C3          8.1653   15.0526   17.8028 C.ar    1  <0>1       -0.0231
      4 C4          7.7349   14.5638   16.6130 C.ar    1  <0>1        0.0167
      5 N1          8.4539   13.4549   16.3055 N.ar    1  <0>1       -0.3581
      6 H1          8.3463   12.9136   15.5078 H       1  <0>1        0.1656
      7 C5          9.3632   13.2265   17.3161 C.ar    1  <0>1        0.0434
      8 C6         10.2964   12.1712   17.3762 C.2     1  <0>1       -0.0254
      9 C7          9.9749   10.9334   16.8516 C.2     1  <0>1        0.0479
     10 C8         10.8686    9.7662   16.6880 C.ar    1  <0>1        0.0084
     11 C9         12.2121    9.5473   16.9831 C.ar    1  <0>1       -0.0515
     12 C10        12.7838    8.3243   16.7113 C.ar    1  <0>1       -0.0533
     13 C11        12.0165    7.3067   16.1408 C.ar    1  <0>1       -0.0160
     14 C12        10.6753    7.5221   15.8389 C.ar    1  <0>1       -0.0322
     15 C13        10.0897    8.7500   16.1149 C.ar    1  <0>1        0.0421
     16 N2          8.7961    9.2206   15.9227 N.am    1  <0>1       -0.2809
     17 C14         8.6720   10.4931   16.3362 C.2     1  <0>1        0.2490
     18 O1          7.6561   11.1640   16.2919 O.2     1  <0>1       -0.2698
     19 C15        12.6359    5.9911   15.8496 C.ar    1  <0>1       -0.0144
     20 C16        11.8753    4.9710   15.2796 C.ar    1  <0>1       -0.0538
     21 C17        12.4557    3.7495   15.0039 C.ar    1  <0>1       -0.0577
     22 C18        13.7878    3.5298   15.3019 C.ar    1  <0>1       -0.0199
     23 C19        14.5521    4.5399   15.8694 C.ar    1  <0>1        0.1207
     24 C20        13.9793    5.7710   16.1443 C.ar    1  <0>1       -0.0122
     25 O2         15.8625    4.3212   16.1559 O.3     1  <0>1       -0.4951
     26 C21        16.3871    3.0285   15.8464 C.3     1  <0>1        0.0788
     27 C22         6.6355   15.1559   15.7694 C.3     1  <0>1       -0.0242
     28 C23         7.6305   16.2744   18.5045 C.3     1  <0>1       -0.0157
     29 C24         6.4801   15.8693   19.4283 C.3     1  <0>1        0.0488
     30 C25         5.9453   17.0910   20.1300 C.2     1  <0>1        0.3050
     31 O3          6.4340   18.1745   19.9135 O.2     1  <0>1       -0.2510
     32 H2         10.8336   15.0020   19.3769 H       1  <0>1        0.0278
     33 H3          9.3197   14.8498   20.3006 H       1  <0>1        0.0278
     34 H4         10.2725   13.3984   19.9082 H       1  <0>1        0.0278
     35 H5         11.2625   12.3301   17.8323 H       1  <0>1        0.0646
     36 H6         12.8045   10.3353   17.4240 H       1  <0>1        0.0624
     37 H7         13.8254    8.1524   16.9389 H       1  <0>1        0.0624
     38 H8         10.0887    6.7321   15.3936 H       1  <0>1        0.0642
     39 H9          8.0750    8.6972   15.5393 H       1  <0>1        0.1552
     40 H10        10.8333    5.1379   15.0501 H       1  <0>1        0.0624
     41 H11        11.8665    2.9617   14.5583 H       1  <0>1        0.0619
     42 H12        14.2362    2.5707   15.0883 H       1  <0>1        0.0654
     43 H13        14.5729    6.5580   16.5855 H       1  <0>1        0.0660
     44 H14        15.8353    2.2700   16.4016 H       1  <0>1        0.0660
     45 H15        16.2858    2.8416   14.7773 H       1  <0>1        0.0660
     46 H16        17.4403    2.9877   16.1242 H       1  <0>1        0.0660
     47 H17         5.6805   14.7152   16.0555 H       1  <0>1        0.0292
     48 H18         6.5991   16.2343   15.9246 H       1  <0>1        0.0292
     49 H19         6.8316   14.9467   14.7178 H       1  <0>1        0.0292
     50 H20         8.4253   16.7322   19.0933 H       1  <0>1        0.0319
     51 H21         7.2684   16.9887   17.7652 H       1  <0>1        0.0319
     52 H22         5.6854   15.4113   18.8396 H       1  <0>1        0.0381
     53 H23         6.8422   15.1549   20.1677 H       1  <0>1        0.0381
     54 O4          4.9260   16.9754   20.9957 O.3     1  <0>1       -0.4806
     55 H           4.5469   16.1351   21.1636 H       1  <0>1        0.2951
@<TRIPOS>BOND
     1     1     2    1
     2     1    32    1
     3     1    33    1
     4     1    34    1
     5     2     7   ar
     6     2     3   ar
     7     3     4   ar
     8     3    28    1
     9     4     5   ar
    10     4    27    1
    11     5     6    1
    12     5     7   ar
    13     7     8    1
    14     8     9    2
    15     8    35    1
    16     9    17    1
    17     9    10    1
    18    10    15   ar
    19    10    11   ar
    20    11    12   ar
    21    11    36    1
    22    12    13   ar
    23    12    37    1
    24    13    14   ar
    25    13    19    1
    26    14    15   ar
    27    14    38    1
    28    15    16    1
    29    16    17   am
    30    16    39    1
    31    17    18    2
    32    19    24   ar
    33    19    20   ar
    34    20    21   ar
    35    20    40    1
    36    21    22   ar
    37    21    41    1
    38    22    23   ar
    39    22    42    1
    40    23    24   ar
    41    23    25    1
    42    24    43    1
    43    25    26    1
    44    26    44    1
    45    26    45    1
    46    26    46    1
    47    27    47    1
    48    27    48    1
    49    27    49    1
    50    28    29    1
    51    28    50    1
    52    28    51    1
    53    29    30    1
    54    29    52    1
    55    29    53    1
    56    30    31    2
    57    30    54    1
    58    54    55    1
@<TRIPOS>MOLECULE
ZINC03834036
 35 37 0 0 0
SMALL
USER_CHARGES

@<TRIPOS>ATOM
      1 C1          9.9491   12.7988   11.3794 C.3     1  <0>1        0.0225
      2 O1         10.8757   12.0508   12.1693 O.3     1  <0>1       -0.3015
      3 C2         10.7200   12.1038   13.5188 C.ar    1  <0>1        0.1259
      4 C3          9.7110   12.8506   14.0532 C.ar    1  <0>1       -0.1739
      5 C4          9.5504   12.9057   15.4482 C.ar    1  <0>1       -0.0867
      6 C5          8.5219   13.6650   16.0317 C.ar    1  <0>1       -0.0511
      7 C6          8.4192   13.6685   17.4153 C.ar    1  <0>1       -0.1000
      8 C7          9.3391   12.9338   18.1791 C.ar    1  <0>1        0.1395
      9 N1         10.2910   12.2326   17.6171 N.ar    1  <0>1       -0.4684
     10 C8         10.4378   12.1853   16.2881 C.ar    1  <0>1        0.1384
     11 C9         11.4662   11.4259   15.7057 C.ar    1  <0>1       -0.1706
     12 C10        11.5988   11.3903   14.3478 C.ar    1  <0>1        0.1399
     13 O2         12.5954   10.6535   13.7910 O.3     1  <0>1       -0.3009
     14 C11        13.4585    9.9484   14.6856 C.3     1  <0>1        0.0215
     15 C12         7.3480   14.4481   18.0829 C.ar    1  <0>1       -0.0426
     16 C13         6.4392   15.1815   17.3223 C.ar    1  <0>1       -0.1110
     17 C14         5.4420   15.9015   17.9485 C.ar    1  <0>1       -0.1158
     18 C15         5.3497   15.9041   19.3287 C.ar    1  <0>1       -0.1164
     19 C16         6.2520   15.1817   20.0888 C.ar    1  <0>1       -0.1148
     20 C17         7.2503   14.4544   19.4731 C.ar    1  <0>1       -0.1095
     21 H1         10.0183   13.8547   11.6409 H       1  <0>1        0.0583
     22 H2         10.1851   12.6700   10.3232 H       1  <0>1        0.1054
     23 H3          8.9371   12.4425   11.5717 H       1  <0>1        0.0583
     24 H4          9.0389   13.3962   13.4074 H       1  <0>1        0.1454
     25 H5          7.8294   14.2253   15.4210 H       1  <0>1        0.1409
     26 H6          9.2571   12.9434   19.2560 H       1  <0>1        0.1616
     27 H7         12.1502   10.8713   16.3310 H       1  <0>1        0.1514
     28 H8         12.8719    9.2470   15.2789 H       1  <0>1        0.0601
     29 H9         14.2076    9.4021   14.1126 H       1  <0>1        0.1058
     30 H10        13.9540   10.6586   15.3476 H       1  <0>1        0.0602
     31 H11         6.5131   15.1838   16.2449 H       1  <0>1        0.1240
     32 H12         4.7349   16.4672   17.3599 H       1  <0>1        0.1256
     33 H13         4.5702   16.4719   19.8146 H       1  <0>1        0.1244
     34 H14         6.1753   15.1873   21.1660 H       1  <0>1        0.1268
     35 H15         7.9541   13.8908   20.0674 H       1  <0>1        0.1274
@<TRIPOS>BOND
     1     1     2    1
     2     1    21    1
     3     1    22    1
     4     1    23    1
     5     2     3    1
     6     3    12   ar
     7     3     4   ar
     8     4     5   ar
     9     4    24    1
    10     5    10   ar
    11     5     6   ar
    12     6     7   ar
    13     6    25    1
    14     7     8   ar
    15     7    15    1
    16     8     9   ar
    17     8    26    1
    18     9    10   ar
    19    10    11   ar
    20    11    12   ar
    21    11    27    1
    22    12    13    1
    23    13    14    1
    24    14    28    1
    25    14    29    1
    26    14    30    1
    27    15    20   ar
    28    15    16   ar
    29    16    17   ar
    30    16    31    1
    31    17    18   ar
    32    17    32    1
    33    18    19   ar
    34    18    33    1
    35    19    20   ar
    36    19    34    1
    37    20    35    1
@<TRIPOS>MOLECULE
ZINC03834037
 38 40 0 0 0
SMALL
USER_CHARGES

@<TRIPOS>ATOM
      1 C1          9.2401   12.5104   11.2512 C.3     1  <0>1        0.0790
      2 O1         10.4946   12.0297   11.7383 O.3     1  <0>1       -0.4914
      3 C2         10.7310   12.1623   13.0705 C.ar    1  <0>1        0.1622
      4 C3          9.7859   12.7351   13.8703 C.ar    1  <0>1       -0.0071
      5 C4         10.0306   12.8727   15.2473 C.ar    1  <0>1        0.0046
      6 C5          9.0788   13.4579   16.0995 C.ar    1  <0>1       -0.0433
      7 C6          9.3873   13.5601   17.4483 C.ar    1  <0>1        0.0008
      8 C7         10.6227   13.0836   17.9134 C.ar    1  <0>1        0.0360
      9 N1         11.4970   12.5417   17.1035 N.ar    1  <0>1       -0.2543
     10 C8         11.2569   12.4149   15.7935 C.ar    1  <0>1        0.0747
     11 C9         12.2091   11.8297   14.9423 C.ar    1  <0>1        0.0097
     12 C10        11.9450   11.7092   13.6088 C.ar    1  <0>1        0.1635
     13 O2         12.8702   11.1421   12.7911 O.3     1  <0>1       -0.4914
     14 C11        14.0866   10.6994   13.3964 C.3     1  <0>1        0.0790
     15 C12         8.4181   14.1686   18.3923 C.ar    1  <0>1       -0.0163
     16 C13         7.1943   14.6463   17.9270 C.ar    1  <0>1       -0.0518
     17 C14         6.2944   15.2067   18.8105 C.ar    1  <0>1       -0.0311
     18 C15         6.6095   15.3049   20.1538 C.ar    1  <0>1        0.1216
     19 C16         7.8251   14.8376   20.6202 C.ar    1  <0>1       -0.0311
     20 C17         8.7303   14.2701   19.7467 C.ar    1  <0>1       -0.0518
     21 N2          5.6427   15.9125   21.0956 N.4     1  <0>1        0.0059
     22 O3          5.9180   16.0004   22.2788 O.2     1  <0>1       -0.1300
     23 O4          4.5717   16.3247   20.6874 O.2     1  <0>1       -0.3961
     24 H1          8.4291   11.9770   11.7471 H       1  <0>1        0.0660
     25 H2          9.1542   13.5769   11.4591 H       1  <0>1        0.0660
     26 H3          9.1801   12.3439   10.1756 H       1  <0>1        0.0660
     27 H4          8.8541   13.0808   13.4474 H       1  <0>1        0.0662
     28 H5          8.1353   13.8171   15.7160 H       1  <0>1        0.0631
     29 H6         10.8560   13.1619   18.9650 H       1  <0>1        0.0836
     30 H7         13.1477   11.4756   15.3424 H       1  <0>1        0.0677
     31 H8         13.8632    9.9466   14.1524 H       1  <0>1        0.0660
     32 H9         14.7356   10.2677   12.6345 H       1  <0>1        0.0660
     33 H10        14.5889   11.5462   13.8642 H       1  <0>1        0.0660
     34 H11         6.9491   14.5743   16.8777 H       1  <0>1        0.0624
     35 H12         5.3438   15.5732   18.4518 H       1  <0>1        0.0640
     36 H13         8.0660   14.9167   21.6701 H       1  <0>1        0.0640
     37 H14         9.6791   13.9056   20.1119 H       1  <0>1        0.0624
     38 H           4.3598   16.2571   19.7772 H       1  <0>1        0.3292
@<TRIPOS>BOND
     1     1     2    1
     2     1    24    1
     3     1    25    1
     4     1    26    1
     5     2     3    1
     6     3    12   ar
     7     3     4   ar
     8     4     5   ar
     9     4    27    1
    10     5    10   ar
    11     5     6   ar
    12     6     7   ar
    13     6    28    1
    14     7     8   ar
    15     7    15    1
    16     8     9   ar
    17     8    29    1
    18     9    10   ar
    19    10    11   ar
    20    11    12   ar
    21    11    30    1
    22    12    13    1
    23    13    14    1
    24    14    31    1
    25    14    32    1
    26    14    33    1
    27    15    20   ar
    28    15    16   ar
    29    16    17   ar
    30    16    34    1
    31    17    18   ar
    32    17    35    1
    33    18    19   ar
    34    18    21    1
    35    19    20   ar
    36    19    36    1
    37    20    37    1
    38    21    22    2
    39    21    23    1
    40    23    38    1
@<TRIPOS>MOLECULE
ZINC03834038
 38 40 0 0 0
SMALL
USER_CHARGES

@<TRIPOS>ATOM
      1 C1          9.2180   10.1450   13.2788 C.3     1  <0>1       -0.0375
      2 C2         10.2079   10.5846   14.3264 C.ar    1  <0>1       -0.0226
      3 C3         11.2453    9.8187   14.8614 C.ar    1  <0>1       -0.0261
      4 C4         11.9054   10.5828   15.7671 C.ar    1  <0>1        0.0056
      5 N1         11.3166   11.8037   15.8269 N.ar    1  <0>1       -0.3606
      6 H1         11.5935   12.5384   16.3964 H       1  <0>1        0.1653
      7 C5         10.2586   11.8252   14.9435 C.ar    1  <0>1        0.0432
      8 C6          9.3914   12.9116   14.7062 C.2     1  <0>1       -0.0254
      9 C7          9.0660   13.7736   15.7359 C.2     1  <0>1        0.0479
     10 C8          8.3024   15.0377   15.6442 C.ar    1  <0>1        0.0084
     11 C9          7.7106   15.7199   14.5859 C.ar    1  <0>1       -0.0521
     12 C10         7.0501   16.9084   14.8219 C.ar    1  <0>1       -0.0611
     13 C11         6.9772   17.4191   16.1075 C.ar    1  <0>1       -0.0600
     14 C12         7.5608   16.7502   17.1641 C.ar    1  <0>1       -0.0399
     15 C13         8.2307   15.5511   16.9463 C.ar    1  <0>1        0.0416
     16 N2          8.8936   14.6909   17.8127 N.am    1  <0>1       -0.2809
     17 C14         9.3977   13.6303   17.1593 C.2     1  <0>1        0.2490
     18 O1         10.0230   12.7121   17.6597 O.2     1  <0>1       -0.2698
     19 C15        11.5774    8.3957   14.4928 C.3     1  <0>1       -0.0159
     20 C16        12.4698    8.3858   13.2500 C.3     1  <0>1        0.0488
     21 C17        12.8019    6.9628   12.8813 C.2     1  <0>1        0.3050
     22 O2         12.3691    6.0502   13.5445 O.2     1  <0>1       -0.2510
     23 H2          8.3490    9.7004   13.7639 H       1  <0>1        0.0278
     24 H3          8.9042   11.0073   12.6907 H       1  <0>1        0.0278
     25 H4          9.6847    9.4091   12.6241 H       1  <0>1        0.0278
     26 H5         12.7612   10.2699   16.3469 H       1  <0>1        0.0810
     27 H6          8.9814   13.0697   13.7196 H       1  <0>1        0.0646
     28 H7          7.7682   15.3213   13.5838 H       1  <0>1        0.0624
     29 H8          6.5894   17.4411   14.0032 H       1  <0>1        0.0618
     30 H9          6.4589   18.3499   16.2846 H       1  <0>1        0.0618
     31 H10         7.4967   17.1584   18.1619 H       1  <0>1        0.0636
     32 H11         8.9783   14.8354   18.7682 H       1  <0>1        0.1552
     33 H12        10.6571    7.8504   14.2835 H       1  <0>1        0.0319
     34 H13        12.1021    7.9188   15.3206 H       1  <0>1        0.0319
     35 H14        13.3902    8.9311   13.4592 H       1  <0>1        0.0381
     36 H15        11.9452    8.8627   12.4221 H       1  <0>1        0.0381
     37 O3         13.5784    6.7092   11.8162 O.3     1  <0>1       -0.4806
     38 H          13.9141    7.4169   11.3020 H       1  <0>1        0.2951
@<TRIPOS>BOND
     1     1     2    1
     2     1    23    1
     3     1    24    1
     4     1    25    1
     5     2     7   ar
     6     2     3   ar
     7     3     4   ar
     8     3    19    1
     9     4     5   ar
    10     4    26    1
    11     5     6    1
    12     5     7   ar
    13     7     8    1
    14     8     9    2
    15     8    27    1
    16     9    17    1
    17     9    10    1
    18    10    15   ar
    19    10    11   ar
    20    11    12   ar
    21    11    28    1
    22    12    13   ar
    23    12    29    1
    24    13    14   ar
    25    13    30    1
    26    14    15   ar
    27    14    31    1
    28    15    16    1
    29    16    17   am
    30    16    32    1
    31    17    18    2
    32    19    20    1
    33    19    33    1
    34    19    34    1
    35    20    21    1
    36    20    35    1
    37    20    36    1
    38    21    22    2
    39    21    37    1
    40    37    38    1
@<TRIPOS>MOLECULE
ZINC03834039
 42 44 0 0 0
SMALL
USER_CHARGES

@<TRIPOS>ATOM
      1 C1         11.2088    5.0917   15.2118 C.3     1  <0>1       -0.0375
      2 C2         12.5480    5.7794   15.2809 C.ar    1  <0>1       -0.0226
      3 C3         13.7834    5.1697   15.5084 C.ar    1  <0>1       -0.0261
      4 C4         14.7359    6.1347   15.4889 C.ar    1  <0>1        0.0056
      5 N1         14.1436    7.3346   15.2624 N.ar    1  <0>1       -0.3606
      6 H1         14.5996    8.1885   15.2017 H       1  <0>1        0.1653
      7 C5         12.7855    7.1371   15.1341 C.ar    1  <0>1        0.0432
      8 C6         11.8163    8.1329   14.8913 C.2     1  <0>1       -0.0254
      9 C7         12.1291    9.2239   14.1042 C.2     1  <0>1        0.0479
     10 C8         11.3005   10.4262   13.8615 C.ar    1  <0>1        0.0086
     11 C9         10.0427   10.8220   14.3058 C.ar    1  <0>1       -0.0486
     12 C10         9.5202   12.0309   13.8962 C.ar    1  <0>1       -0.0193
     13 C11        10.2493   12.8506   13.0426 C.ar    1  <0>1        0.1219
     14 C12        11.5053   12.4677   12.6027 C.ar    1  <0>1        0.0019
     15 C13        12.0421   11.2497   13.0030 C.ar    1  <0>1        0.0450
     16 N2         13.2486   10.6284   12.7045 N.am    1  <0>1       -0.2808
     17 C14        13.3534    9.4395   13.3219 C.2     1  <0>1        0.2490
     18 O1         14.2982    8.6742   13.2458 O.2     1  <0>1       -0.2698
     19 O2          9.7288   14.0410   12.6432 O.3     1  <0>1       -0.4951
     20 C15         8.4327   14.3814   13.1393 C.3     1  <0>1        0.0788
     21 C16        14.0177    3.6976   15.7302 C.3     1  <0>1       -0.0159
     22 C17        14.1353    2.9905   14.3785 C.3     1  <0>1        0.0488
     23 C18        14.3696    1.5185   14.6004 C.2     1  <0>1        0.3050
     24 O3         14.4357    1.0799   15.7242 O.2     1  <0>1       -0.2510
     25 H2         10.7653    5.0592   16.2070 H       1  <0>1        0.0278
     26 H3         10.5517    5.6427   14.5389 H       1  <0>1        0.0278
     27 H4         11.3408    4.0758   14.8395 H       1  <0>1        0.0278
     28 H5         15.7945    5.9744   15.6303 H       1  <0>1        0.0810
     29 H6         10.8296    8.0422   15.3209 H       1  <0>1        0.0646
     30 H7          9.4771   10.1843   14.9691 H       1  <0>1        0.0625
     31 H8          8.5443   12.3410   14.2393 H       1  <0>1        0.0654
     32 H9         12.0631   13.1106   11.9379 H       1  <0>1        0.0673
     33 H10        13.9285   11.0048   12.1240 H       1  <0>1        0.1552
     34 H11         8.1364   15.3534   12.7446 H       1  <0>1        0.0660
     35 H12         7.7128   13.6264   12.8235 H       1  <0>1        0.0660
     36 H13         8.4602   14.4245   14.2281 H       1  <0>1        0.0660
     37 H14        13.1817    3.2768   16.2889 H       1  <0>1        0.0319
     38 H15        14.9394    3.5575   16.2950 H       1  <0>1        0.0319
     39 H16        14.9713    3.4114   13.8199 H       1  <0>1        0.0381
     40 H17        13.2136    3.1307   13.8137 H       1  <0>1        0.0381
     41 O4         14.5048    0.6946   13.5493 O.3     1  <0>1       -0.4806
     42 H          14.4535    1.0347   12.6777 H       1  <0>1        0.2951
@<TRIPOS>BOND
     1     1     2    1
     2     1    25    1
     3     1    26    1
     4     1    27    1
     5     2     7   ar
     6     2     3   ar
     7     3     4   ar
     8     3    21    1
     9     4     5   ar
    10     4    28    1
    11     5     6    1
    12     5     7   ar
    13     7     8    1
    14     8     9    2
    15     8    29    1
    16     9    17    1
    17     9    10    1
    18    10    15   ar
    19    10    11   ar
    20    11    12   ar
    21    11    30    1
    22    12    13   ar
    23    12    31    1
    24    13    14   ar
    25    13    19    1
    26    14    15   ar
    27    14    32    1
    28    15    16    1
    29    16    17   am
    30    16    33    1
    31    17    18    2
    32    19    20    1
    33    20    34    1
    34    20    35    1
    35    20    36    1
    36    21    22    1
    37    21    37    1
    38    21    38    1
    39    22    23    1
    40    22    39    1
    41    22    40    1
    42    23    24    2
    43    23    41    1
    44    41    42    1
@<TRIPOS>MOLECULE
ZINC03834040
 35 37 0 0 0
SMALL
USER_CHARGES

@<TRIPOS>ATOM
      1 C1          7.8179   10.7482   22.2554 C.3     1  <0>1        0.0220
      2 O1          7.1069   11.9705   22.0490 O.3     1  <0>1       -0.3008
      3 C2          7.2249   12.5544   20.8269 C.ar    1  <0>1        0.1271
      4 C3          7.9983   11.9660   19.8694 C.ar    1  <0>1       -0.1734
      5 C4          8.1207   12.5698   18.6063 C.ar    1  <0>1       -0.0883
      6 C5          8.9039   11.9873   17.5955 C.ar    1  <0>1       -0.0425
      7 C6          8.9826   12.6409   16.3740 C.ar    1  <0>1       -0.1081
      8 C7          8.2794   13.8407   16.1850 C.ar    1  <0>1        0.1437
      9 N1          7.5503   14.3650   17.1376 N.ar    1  <0>1       -0.4666
     10 C8          7.4393   13.7846   18.3378 C.ar    1  <0>1        0.1438
     11 C9          6.6511   14.3643   19.3459 C.ar    1  <0>1       -0.1727
     12 C10         6.5504   13.7562   20.5635 C.ar    1  <0>1        0.1440
     13 O2          5.7863   14.3223   21.5340 O.3     1  <0>1       -0.2999
     14 C11         5.1234   15.5452   21.2071 C.3     1  <0>1        0.0210
     15 C12         9.7992   12.0724   15.2739 C.ar    1  <0>1       -0.0175
     16 C13         9.8714   12.7285   14.0462 C.ar    1  <0>1       -0.0915
     17 C14        10.6273   12.1941   13.0230 C.ar    1  <0>1       -0.1171
     18 C15        11.3230   11.0122   13.2168 C.ar    1  <0>1        0.0690
     19 C16        11.2548   10.3548   14.4367 C.ar    1  <0>1        0.0756
     20 C17        10.4958   10.8808   15.4647 C.ar    1  <0>1       -0.1216
     21 F1         11.9313    9.1998   14.6198 F       1  <0>1       -0.1251
     22 F2         12.0660   10.4955   12.2137 F       1  <0>1       -0.1253
     23 H1          8.8851   10.9205   22.1149 H       1  <0>1        0.0589
     24 H2          7.6380   10.3901   23.2690 H       1  <0>1        0.1060
     25 H3          7.4730   10.0019   21.5397 H       1  <0>1        0.0589
     26 H4          8.5142   11.0410   20.0811 H       1  <0>1        0.1466
     27 H5          9.4317   11.0606   17.7653 H       1  <0>1        0.1423
     28 H6          8.3408   14.3431   15.2310 H       1  <0>1        0.1638
     29 H7          6.1255   15.2888   19.1575 H       1  <0>1        0.1526
     30 H8          4.4519   15.3805   20.3643 H       1  <0>1        0.0608
     31 H9          4.5491   15.8885   22.0675 H       1  <0>1        0.1064
     32 H10         5.8635   16.2996   20.9398 H       1  <0>1        0.0608
     33 H11         9.3325   13.6521   13.8945 H       1  <0>1        0.1468
     34 H12        10.6796   12.7002   12.0704 H       1  <0>1        0.1522
     35 H13        10.4429   10.3693   16.4145 H       1  <0>1        0.1480
@<TRIPOS>BOND
     1     1     2    1
     2     1    23    1
     3     1    24    1
     4     1    25    1
     5     2     3    1
     6     3    12   ar
     7     3     4   ar
     8     4     5   ar
     9     4    26    1
    10     5    10   ar
    11     5     6   ar
    12     6     7   ar
    13     6    27    1
    14     7     8   ar
    15     7    15    1
    16     8     9   ar
    17     8    28    1
    18     9    10   ar
    19    10    11   ar
    20    11    12   ar
    21    11    29    1
    22    12    13    1
    23    13    14    1
    24    14    30    1
    25    14    31    1
    26    14    32    1
    27    15    20   ar
    28    15    16   ar
    29    16    17   ar
    30    16    33    1
    31    17    18   ar
    32    17    34    1
    33    18    19   ar
    34    18    22    1
    35    19    20   ar
    36    19    21    1
    37    20    35    1
@<TRIPOS>MOLECULE
ZINC03834041
 48 51 0 0 0
SMALL
USER_CHARGES

@<TRIPOS>ATOM
      1 C1         10.6374   12.1941   12.9636 C.3     1  <0>1       -0.0375
      2 C2          9.8803   12.7158   14.1576 C.ar    1  <0>1       -0.0226
      3 C3          8.4949   12.8445   14.2703 C.ar    1  <0>1       -0.0261
      4 C4          8.2199   13.3451   15.5006 C.ar    1  <0>1        0.0056
      5 N1          9.3851   13.5426   16.1671 N.ar    1  <0>1       -0.3606
      6 H1          9.4698   13.8933   17.0675 H       1  <0>1        0.1653
      7 C5         10.4285   13.1620   15.3505 C.ar    1  <0>1        0.0432
      8 C6         11.8005   13.2113   15.6718 C.2     1  <0>1       -0.0254
      9 C7         12.2151   12.9804   16.9701 C.2     1  <0>1        0.0479
     10 C8         13.5805   13.1319   17.5185 C.ar    1  <0>1        0.0084
     11 C9         14.7913   13.5354   16.9606 C.ar    1  <0>1       -0.0515
     12 C10        15.9239   13.5856   17.7420 C.ar    1  <0>1       -0.0533
     13 C11        15.8558   13.2384   19.0928 C.ar    1  <0>1       -0.0161
     14 C12        14.6475   12.8404   19.6566 C.ar    1  <0>1       -0.0322
     15 C13        13.5010   12.7871   18.8760 C.ar    1  <0>1        0.0421
     16 N2         12.1923   12.4308   19.1800 N.am    1  <0>1       -0.2809
     17 C14        11.3964   12.5255   18.1014 C.2     1  <0>1        0.2490
     18 O1         10.2043   12.2771   18.0678 O.2     1  <0>1       -0.2698
     19 C15        17.0780   13.2938   19.9310 C.ar    1  <0>1       -0.0178
     20 C16        17.0162   12.9537   21.2813 C.ar    1  <0>1       -0.0540
     21 C17        18.1578   13.0020   22.0552 C.ar    1  <0>1       -0.0612
     22 C18        19.3594   13.3981   21.4960 C.ar    1  <0>1       -0.0617
     23 C19        19.4256   13.7417   20.1576 C.ar    1  <0>1       -0.0612
     24 C20        18.2917   13.6916   19.3727 C.ar    1  <0>1       -0.0540
     25 C21         7.4826   12.4845   13.2135 C.3     1  <0>1       -0.0159
     26 C22         7.1575   10.9923   13.3059 C.3     1  <0>1        0.0488
     27 C23         6.1453   10.6323   12.2491 C.2     1  <0>1        0.3050
     28 O2          5.7267   11.4821   11.4991 O.2     1  <0>1       -0.2510
     29 H2         10.8776   13.0214   12.2958 H       1  <0>1        0.0278
     30 H3         11.5590   11.7174   13.2976 H       1  <0>1        0.0278
     31 H4         10.0232   11.4660   12.4337 H       1  <0>1        0.0278
     32 H5          7.2331   13.5529   15.8872 H       1  <0>1        0.0810
     33 H6         12.5275   13.4295   14.9035 H       1  <0>1        0.0646
     34 H7         14.8426   13.8033   15.9156 H       1  <0>1        0.0624
     35 H8         16.8649   13.8930   17.3101 H       1  <0>1        0.0624
     36 H9         14.6019   12.5726   20.7019 H       1  <0>1        0.0642
     37 H10        11.8919   12.1499   20.0585 H       1  <0>1        0.1552
     38 H11        16.0775   12.6491   21.7201 H       1  <0>1        0.0624
     39 H12        18.1121   12.7342   23.1005 H       1  <0>1        0.0618
     40 H13        20.2494   13.4386   22.1065 H       1  <0>1        0.0618
     41 H14        20.3665   14.0500   19.7263 H       1  <0>1        0.0618
     42 H15        18.3446   13.9597   18.3279 H       1  <0>1        0.0624
     43 H16         7.8915   12.7070   12.2279 H       1  <0>1        0.0319
     44 H17         6.5731   13.0648   13.3690 H       1  <0>1        0.0319
     45 H18         6.7487   10.7698   14.2915 H       1  <0>1        0.0381
     46 H19         8.0671   10.4120   13.1504 H       1  <0>1        0.0381
     47 O3          5.7085    9.3676   12.1411 O.3     1  <0>1       -0.4806
     48 H           6.0331    8.7086   12.7227 H       1  <0>1        0.2951
@<TRIPOS>BOND
     1     1     2    1
     2     1    29    1
     3     1    30    1
     4     1    31    1
     5     2     7   ar
     6     2     3   ar
     7     3     4   ar
     8     3    25    1
     9     4     5   ar
    10     4    32    1
    11     5     6    1
    12     5     7   ar
    13     7     8    1
    14     8     9    2
    15     8    33    1
    16     9    17    1
    17     9    10    1
    18    10    15   ar
    19    10    11   ar
    20    11    12   ar
    21    11    34    1
    22    12    13   ar
    23    12    35    1
    24    13    14   ar
    25    13    19    1
    26    14    15   ar
    27    14    36    1
    28    15    16    1
    29    16    17   am
    30    16    37    1
    31    17    18    2
    32    19    24   ar
    33    19    20   ar
    34    20    21   ar
    35    20    38    1
    36    21    22   ar
    37    21    39    1
    38    22    23   ar
    39    22    40    1
    40    23    24   ar
    41    23    41    1
    42    24    42    1
    43    25    26    1
    44    25    43    1
    45    25    44    1
    46    26    27    1
    47    26    45    1
    48    26    46    1
    49    27    28    2
    50    27    47    1
    51    47    48    1
@<TRIPOS>MOLECULE
ZINC03834042
 39 42 0 0 0
SMALL
USER_CHARGES

@<TRIPOS>ATOM
      1 C1          9.8128   12.3725   13.2928 C.3     1  <0>1        0.0231
      2 O1         10.7590   12.7949   14.2768 O.3     1  <0>1       -0.3024
      3 C2         11.4792   11.8234   14.8978 C.ar    1  <0>1        0.1243
      4 C3         11.2757   10.5157   14.5659 C.ar    1  <0>1       -0.1744
      5 C4         12.0198    9.5113   15.2082 C.ar    1  <0>1       -0.0854
      6 C5         11.8351    8.1548   14.8907 C.ar    1  <0>1       -0.0565
      7 C6         12.6045    7.2169   15.5655 C.ar    1  <0>1       -0.0559
      8 C7         13.5262    7.6461   16.5341 C.ar    1  <0>1        0.1428
      9 N1         13.6866    8.9151   16.8120 N.ar    1  <0>1       -0.4703
     10 C8         12.9749    9.8653   16.1951 C.ar    1  <0>1        0.1353
     11 C9         13.1603   11.2212   16.5130 C.ar    1  <0>1       -0.1691
     12 C10        12.4235   12.1756   15.8736 C.ar    1  <0>1        0.1363
     13 O2         12.6075   13.4852   16.1863 O.3     1  <0>1       -0.3021
     14 C11        13.5827   13.7824   17.1875 C.3     1  <0>1        0.0220
     15 C12        12.4499    5.7728   15.2702 C.ar    1  <0>1       -0.1406
     16 C13        11.2880    5.0764   15.2231 C.ar    1  <0>1        0.0764
     17 N2         11.5452    3.7696   14.9211 N.ar    1  <0>1       -0.5904
     18 H1         10.8716    3.0773   14.8321 H       1  <0>1        0.4191
     19 C14        12.9004    3.5770   14.7610 C.ar    1  <0>1        0.0950
     20 C15        13.5281    4.8168   14.9711 C.ar    1  <0>1       -0.0904
     21 C16        14.9146    4.9223   14.8721 C.ar    1  <0>1       -0.0724
     22 C17        15.6632    3.8072   14.5680 C.ar    1  <0>1       -0.1414
     23 C18        15.0441    2.5827   14.3603 C.ar    1  <0>1       -0.0970
     24 C19        13.6749    2.4629   14.4548 C.ar    1  <0>1       -0.1291
     25 H2         10.3308   11.8376   12.4966 H       1  <0>1        0.0579
     26 H3          9.0779   11.7132   13.7548 H       1  <0>1        0.0577
     27 H4          9.3080   13.2441   12.8763 H       1  <0>1        0.1045
     28 H5         10.5464   10.2537   13.8137 H       1  <0>1        0.1440
     29 H6         11.1160    7.8512   14.1445 H       1  <0>1        0.1374
     30 H7         14.1194    6.9122   17.0593 H       1  <0>1        0.1586
     31 H8         13.8841   11.5077   17.2616 H       1  <0>1        0.1501
     32 H9         13.3046   13.2947   18.1217 H       1  <0>1        0.0596
     33 H10        14.5580   13.4188   16.8640 H       1  <0>1        0.0597
     34 H11        13.6294   14.8607   17.3405 H       1  <0>1        0.1049
     35 H12        10.3068    5.4921   15.3984 H       1  <0>1        0.1738
     36 H13        15.3989    5.8749   15.0287 H       1  <0>1        0.1223
     37 H14        16.7375    3.8860   14.4906 H       1  <0>1        0.1248
     38 H15        15.6416    1.7151   14.1220 H       1  <0>1        0.1268
     39 H16        13.2035    1.5052   14.2910 H       1  <0>1        0.1210
@<TRIPOS>BOND
     1     1     2    1
     2     1    25    1
     3     1    26    1
     4     1    27    1
     5     2     3    1
     6     3    12   ar
     7     3     4   ar
     8     4     5   ar
     9     4    28    1
    10     5    10   ar
    11     5     6   ar
    12     6     7   ar
    13     6    29    1
    14     7     8   ar
    15     7    15    1
    16     8     9   ar
    17     8    30    1
    18     9    10   ar
    19    10    11   ar
    20    11    12   ar
    21    11    31    1
    22    12    13    1
    23    13    14    1
    24    14    32    1
    25    14    33    1
    26    14    34    1
    27    15    20   ar
    28    15    16   ar
    29    16    17   ar
    30    16    35    1
    31    17    18    1
    32    17    19   ar
    33    19    24   ar
    34    19    20   ar
    35    20    21   ar
    36    21    22   ar
    37    21    36    1
    38    22    23   ar
    39    22    37    1
    40    23    24   ar
    41    23    38    1
    42    24    39    1
@<TRIPOS>MOLECULE
ZINC03834043
 39 41 0 0 0
SMALL
USER_CHARGES

@<TRIPOS>ATOM
      1 C1          7.8071   10.7452   22.2521 C.3     1  <0>1        0.0219
      2 O1          7.1016   11.9708   22.0472 O.3     1  <0>1       -0.3006
      3 C2          7.2238   12.5567   20.8266 C.ar    1  <0>1        0.1271
      4 C3          7.9962   11.9671   19.8689 C.ar    1  <0>1       -0.1725
      5 C4          8.1223   12.5726   18.6070 C.ar    1  <0>1       -0.0899
      6 C5          8.9089   11.9918   17.5979 C.ar    1  <0>1       -0.0363
      7 C6          8.9878   12.6448   16.3761 C.ar    1  <0>1       -0.1124
      8 C7          8.2897   13.8480   16.1886 C.ar    1  <0>1        0.1462
      9 N1          7.5618   14.3735   17.1413 N.ar    1  <0>1       -0.4661
     10 C8          7.4467   13.7910   18.3402 C.ar    1  <0>1        0.1464
     11 C9          6.6596   14.3720   19.3484 C.ar    1  <0>1       -0.1735
     12 C10         6.5547   13.7618   20.5647 C.ar    1  <0>1        0.1456
     13 O2          5.7915   14.3290   21.5352 O.3     1  <0>1       -0.2996
     14 C11         5.1341   15.5554   21.2098 C.3     1  <0>1        0.0208
     15 C12         9.7991   12.0724   15.2742 C.ar    1  <0>1        0.0198
     16 C13        10.4954   10.8803   15.4665 C.ar    1  <0>1       -0.1481
     17 C14        11.2472   10.3472   14.4376 C.ar    1  <0>1        0.1218
     18 C15        11.3171   11.0030   13.2147 C.ar    1  <0>1        0.0257
     19 C16        10.6278   12.1939   13.0222 C.ar    1  <0>1        0.1230
     20 C17         9.8712   12.7287   14.0466 C.ar    1  <0>1       -0.1461
     21 F1         10.6979   12.8296   11.8321 F       1  <0>1       -0.1181
     22 O3         12.0616   10.4787   12.2047 O.3     1  <0>1       -0.3191
     23 C18        13.4307   10.8815   12.1315 C.3     1  <0>1        0.0301
     24 F2         11.9193    9.1898   14.6221 F       1  <0>1       -0.1191
     25 H1          7.6242   10.3856   23.2647 H       1  <0>1        0.1061
     26 H2          7.4602   10.0018   21.5344 H       1  <0>1        0.0591
     27 H3          8.8751   10.9133   22.1135 H       1  <0>1        0.0589
     28 H4          8.5082   11.0398   20.0796 H       1  <0>1        0.1472
     29 H5          9.4359   11.0645   17.7679 H       1  <0>1        0.1441
     30 H6          8.3544   14.3520   15.2357 H       1  <0>1        0.1638
     31 H7          6.1385   15.2993   19.1613 H       1  <0>1        0.1530
     32 H8          5.8778   16.3072   20.9453 H       1  <0>1        0.0610
     33 H9          4.4633   15.3953   20.3658 H       1  <0>1        0.0611
     34 H10         4.5600   15.8993   22.0702 H       1  <0>1        0.1066
     35 H11        10.4447   10.3723   16.4182 H       1  <0>1        0.1506
     36 H12         9.3361   13.6548   13.8968 H       1  <0>1        0.1541
     37 H13        13.4851   11.9627   12.0046 H       1  <0>1        0.0520
     38 H14        13.9428   10.5973   13.0508 H       1  <0>1        0.0515
     39 H15        13.9086   10.3916   11.2831 H       1  <0>1        0.1039
@<TRIPOS>BOND
     1     1     2    1
     2     1    25    1
     3     1    26    1
     4     1    27    1
     5     2     3    1
     6     3    12   ar
     7     3     4   ar
     8     4     5   ar
     9     4    28    1
    10     5    10   ar
    11     5     6   ar
    12     6     7   ar
    13     6    29    1
    14     7     8   ar
    15     7    15    1
    16     8     9   ar
    17     8    30    1
    18     9    10   ar
    19    10    11   ar
    20    11    12   ar
    21    11    31    1
    22    12    13    1
    23    13    14    1
    24    14    32    1
    25    14    33    1
    26    14    34    1
    27    15    20   ar
    28    15    16   ar
    29    16    17   ar
    30    16    35    1
    31    17    18   ar
    32    17    24    1
    33    18    19   ar
    34    18    22    1
    35    19    20   ar
    36    19    21    1
    37    20    36    1
    38    22    23    1
    39    23    37    1
    40    23    38    1
    41    23    39    1
@<TRIPOS>MOLECULE
ZINC03834044
 38 40 0 0 0
SMALL
USER_CHARGES

@<TRIPOS>ATOM
      1 C1         11.7277    8.0285   14.9141 C.3     1  <0>1        0.0230
      2 O1         11.8278    8.9218   13.8032 O.3     1  <0>1       -0.3022
      3 C2         11.1946   10.1195   13.9155 C.ar    1  <0>1        0.1245
      4 C3         10.5063   10.4149   15.0559 C.ar    1  <0>1       -0.1745
      5 C4          9.8526   11.6525   15.1721 C.ar    1  <0>1       -0.0873
      6 C5          9.1327   11.9920   16.3323 C.ar    1  <0>1       -0.0601
      7 C6          8.5206   13.2128   16.3778 C.ar    1  <0>1       -0.1276
      8 C7          8.6198   14.0809   15.2935 C.ar    1  <0>1        0.1354
      9 N1          9.2911   13.7617   14.2132 N.ar    1  <0>1       -0.4698
     10 C8          9.9138   12.5833   14.1043 C.ar    1  <0>1        0.1329
     11 C9         10.6356   12.2512   12.9456 C.ar    1  <0>1       -0.1693
     12 C10        11.2565   11.0393   12.8577 C.ar    1  <0>1        0.1363
     13 O2         11.9488   10.7210   11.7326 O.3     1  <0>1       -0.3018
     14 C11        11.9760   11.6975   10.6896 C.3     1  <0>1        0.0220
     15 C12         7.7390   13.6195   17.6004 C.3     1  <0>1       -0.0495
     16 C13         6.2820   13.9455   17.2119 C.3     1  <0>1       -0.1188
     17 C14         5.9065   15.1433   18.1205 C.3     1  <0>1       -0.1260
     18 C15         7.2164   15.9689   18.1580 C.3     1  <0>1       -0.1264
     19 C16         8.3328   14.9052   18.2020 C.3     1  <0>1       -0.1192
     20 H1         12.1511    8.5016   15.8001 H       1  <0>1        0.0579
     21 H2         10.6797    7.7900   15.0954 H       1  <0>1        0.0579
     22 H3         12.2761    7.1125   14.6942 H       1  <0>1        0.1049
     23 H4         10.4645    9.7007   15.8650 H       1  <0>1        0.1442
     24 H5          9.0662   11.3067   17.1643 H       1  <0>1        0.1366
     25 H6          8.1308   15.0426   15.3435 H       1  <0>1        0.1568
     26 H7         10.6955   12.9513   12.1254 H       1  <0>1        0.1500
     27 H8         10.9582   11.9041   10.3586 H       1  <0>1        0.0596
     28 H9         12.5605   11.3177    9.8516 H       1  <0>1        0.1053
     29 H10        12.4301   12.6154   11.0630 H       1  <0>1        0.0595
     30 H11         7.7581   12.8181   18.3390 H       1  <0>1        0.0821
     31 H12         6.2219   14.2302   16.1615 H       1  <0>1        0.0701
     32 H13         5.6333   13.0935   17.4149 H       1  <0>1        0.0683
     33 H14         5.6374   14.8000   19.1195 H       1  <0>1        0.0681
     34 H15         5.0963   15.7240   17.6792 H       1  <0>1        0.0685
     35 H16         7.2486   16.5930   19.0510 H       1  <0>1        0.0671
     36 H17         7.3076   16.5806   17.2605 H       1  <0>1        0.0668
     37 H18         8.6393   14.7280   19.2330 H       1  <0>1        0.0679
     38 H19         9.1869   15.2345   17.6102 H       1  <0>1        0.0670
@<TRIPOS>BOND
     1     1     2    1
     2     1    20    1
     3     1    21    1
     4     1    22    1
     5     2     3    1
     6     3    12   ar
     7     3     4   ar
     8     4     5   ar
     9     4    23    1
    10     5    10   ar
    11     5     6   ar
    12     6     7   ar
    13     6    24    1
    14     7     8   ar
    15     7    15    1
    16     8     9   ar
    17     8    25    1
    18     9    10   ar
    19    10    11   ar
    20    11    12   ar
    21    11    26    1
    22    12    13    1
    23    13    14    1
    24    14    27    1
    25    14    28    1
    26    14    29    1
    27    15    19    1
    28    15    16    1
    29    15    30    1
    30    16    17    1
    31    16    31    1
    32    16    32    1
    33    17    18    1
    34    17    33    1
    35    17    34    1
    36    18    19    1
    37    18    35    1
    38    18    36    1
    39    19    37    1
    40    19    38    1
@<TRIPOS>MOLECULE
ZINC03834045
 47 49 0 0 0
SMALL
USER_CHARGES

@<TRIPOS>ATOM
      1 C1         12.5282    5.8999   15.2613 C.3     1  <0>1        0.0230
      2 O1         12.2099    6.7217   16.3862 O.3     1  <0>1       -0.3023
      3 C2         11.7278    7.9657   16.1251 C.ar    1  <0>1        0.1246
      4 C3         11.5704    8.3708   14.8318 C.ar    1  <0>1       -0.1747
      5 C4         11.0724    9.6559   14.5619 C.ar    1  <0>1       -0.0876
      6 C5         10.8969   10.1088   13.2414 C.ar    1  <0>1       -0.0589
      7 C6         10.4134   11.3725   13.0516 C.ar    1  <0>1       -0.1351
      8 C7         10.1004   12.1693   14.1499 C.ar    1  <0>1        0.1330
      9 N1         10.2644   11.7445   15.3796 N.ar    1  <0>1       -0.4703
     10 C8         10.7378   10.5203   15.6350 C.ar    1  <0>1        0.1335
     11 C9         10.9109   10.0728   16.9556 C.ar    1  <0>1       -0.1695
     12 C10        11.3968    8.8192   17.1884 C.ar    1  <0>1        0.1364
     13 O2         11.5619    8.3913   18.4675 O.3     1  <0>1       -0.3019
     14 C11        11.2078    9.3047   19.5079 C.3     1  <0>1        0.0220
     15 C12        10.2151   11.9022   11.6547 C.3     1  <0>1       -0.0774
     16 C13         8.8010   11.5654   11.1775 C.3     1  <0>1       -0.1099
     17 C14         8.5997   12.1030    9.7594 C.3     1  <0>1       -0.0866
     18 C15         8.6669   13.6314    9.7791 C.3     1  <0>1       -0.1169
     19 C16         8.4656   14.1692    8.3609 C.3     1  <0>1       -0.1209
     20 C17         7.0984   13.7255    7.8366 C.3     1  <0>1       -0.1211
     21 C18         7.0312   12.1971    7.8168 C.3     1  <0>1       -0.1204
     22 C19         7.2325   11.6594    9.2351 C.3     1  <0>1       -0.1150
     23 H1         11.6330    5.7465   14.6586 H       1  <0>1        0.0578
     24 H2         13.2927    6.3897   14.6582 H       1  <0>1        0.0579
     25 H3         12.9015    4.9367   15.6090 H       1  <0>1        0.1049
     26 H4         11.8280    7.7068   14.0198 H       1  <0>1        0.1441
     27 H5         11.1421    9.4764   12.4009 H       1  <0>1        0.1362
     28 H6          9.7154   13.1647   13.9846 H       1  <0>1        0.1573
     29 H7         10.6606   10.7193   17.7837 H       1  <0>1        0.1499
     30 H8         11.8126   10.2072   19.4206 H       1  <0>1        0.0596
     31 H9         10.1528    9.5644   19.4198 H       1  <0>1        0.0595
     32 H10        11.3876    8.8390   20.4770 H       1  <0>1        0.1053
     33 H11        10.3510   12.9837   11.6535 H       1  <0>1        0.0796
     34 H12        10.9432   11.4438   10.9855 H       1  <0>1        0.0743
     35 H13         8.6651   10.4838   11.1787 H       1  <0>1        0.0632
     36 H14         8.0729   12.0238   11.8467 H       1  <0>1        0.0651
     37 H15         9.3824   11.7134    9.1085 H       1  <0>1        0.0703
     38 H16         7.8842   14.0211   10.4300 H       1  <0>1        0.0622
     39 H17         9.6409   13.9475   10.1527 H       1  <0>1        0.0641
     40 H18         9.2483   13.7795    7.7100 H       1  <0>1        0.0606
     41 H19         8.5134   15.2581    8.3750 H       1  <0>1        0.0607
     42 H20         6.9550   14.1086    6.8262 H       1  <0>1        0.0597
     43 H21         6.3157   14.1152    8.4874 H       1  <0>1        0.0608
     44 H22         7.8139   11.8074    7.1660 H       1  <0>1        0.0606
     45 H23         6.0572   11.8810    7.4433 H       1  <0>1        0.0604
     46 H24         7.1847   10.5705    9.2209 H       1  <0>1        0.0604
     47 H25         6.4498   12.0491    9.8859 H       1  <0>1        0.0617
@<TRIPOS>BOND
     1     1     2    1
     2     1    23    1
     3     1    24    1
     4     1    25    1
     5     2     3    1
     6     3    12   ar
     7     3     4   ar
     8     4     5   ar
     9     4    26    1
    10     5    10   ar
    11     5     6   ar
    12     6     7   ar
    13     6    27    1
    14     7     8   ar
    15     7    15    1
    16     8     9   ar
    17     8    28    1
    18     9    10   ar
    19    10    11   ar
    20    11    12   ar
    21    11    29    1
    22    12    13    1
    23    13    14    1
    24    14    30    1
    25    14    31    1
    26    14    32    1
    27    15    16    1
    28    15    33    1
    29    15    34    1
    30    16    17    1
    31    16    35    1
    32    16    36    1
    33    17    22    1
    34    17    18    1
    35    17    37    1
    36    18    19    1
    37    18    38    1
    38    18    39    1
    39    19    20    1
    40    19    40    1
    41    19    41    1
    42    20    21    1
    43    20    42    1
    44    20    43    1
    45    21    22    1
    46    21    44    1
    47    21    45    1
    48    22    46    1
    49    22    47    1
@<TRIPOS>MOLECULE
ZINC03834046
 52 55 0 0 0
SMALL
USER_CHARGES

@<TRIPOS>ATOM
      1 C1          6.9517   14.6242   18.4417 C.3     1  <0>1       -0.0380
      2 C2          7.8269   13.6390   17.7107 C.ar    1  <0>1       -0.0294
      3 C3          7.8542   13.4385   16.3695 C.ar    1  <0>1        0.0053
      4 N1          8.7690   12.4774   16.0857 N.ar    1  <0>1       -0.3606
      5 H1          8.9872   12.1475   15.2000 H       1  <0>1        0.1653
      6 C4          9.3339   12.0455   17.2667 C.ar    1  <0>1        0.0434
      7 C5          8.7517   12.7715   18.2948 C.ar    1  <0>1       -0.0193
      8 C6          9.0592   12.6473   19.7648 C.3     1  <0>1       -0.0154
      9 C7         10.1889   13.6113   20.1327 C.3     1  <0>1        0.0488
     10 C8         10.4964   13.4872   21.6028 C.2     1  <0>1        0.3050
     11 O1          9.8757   12.7076   22.2861 O.2     1  <0>1       -0.2510
     12 C9         10.3257   11.0528   17.4035 C.2     1  <0>1       -0.0254
     13 C10        10.3449    9.9718   16.5423 C.2     1  <0>1        0.0479
     14 C11        11.3843    8.9247   16.4363 C.ar    1  <0>1        0.0084
     15 C12        12.5830    8.7017   17.1098 C.ar    1  <0>1       -0.0515
     16 C13        13.3608    7.6131   16.7840 C.ar    1  <0>1       -0.0533
     17 C14        12.9471    6.7355   15.7798 C.ar    1  <0>1       -0.0160
     18 C15        11.7535    6.9569   15.0999 C.ar    1  <0>1       -0.0322
     19 C16        10.9606    8.0486   15.4261 C.ar    1  <0>1        0.0421
     20 N2          9.7450    8.4921   14.9185 N.am    1  <0>1       -0.2809
     21 C17         9.3374    9.6141   15.5352 C.2     1  <0>1        0.2490
     22 O2          8.3117   10.2278   15.2999 O.2     1  <0>1       -0.2698
     23 C18        13.7878    5.5643   15.4318 C.ar    1  <0>1       -0.0144
     24 C19        13.3806    4.6844   14.4297 C.ar    1  <0>1       -0.0538
     25 C20        14.1672    3.5982   14.1041 C.ar    1  <0>1       -0.0577
     26 C21        15.3545    3.3733   14.7760 C.ar    1  <0>1       -0.0199
     27 C22        15.7674    4.2446   15.7745 C.ar    1  <0>1        0.1207
     28 C23        14.9865    5.3402   16.1046 C.ar    1  <0>1       -0.0122
     29 O3         16.9377    4.0225   16.4288 O.3     1  <0>1       -0.4951
     30 C24        17.6919    2.8736   16.0372 C.3     1  <0>1        0.0788
     31 H2          7.4712   15.5787   18.5263 H       1  <0>1        0.0278
     32 H3          6.0224   14.7640   17.8897 H       1  <0>1        0.0278
     33 H4          6.7286   14.2424   19.4381 H       1  <0>1        0.0278
     34 H5          7.2489   13.9621   15.6444 H       1  <0>1        0.0810
     35 H6          8.1692   12.8925   20.3441 H       1  <0>1        0.0319
     36 H7          9.3670   11.6255   19.9866 H       1  <0>1        0.0319
     37 H8         11.0789   13.3661   19.5533 H       1  <0>1        0.0381
     38 H9          9.8811   14.6332   19.9109 H       1  <0>1        0.0381
     39 H10        11.0702   11.1371   18.1812 H       1  <0>1        0.0646
     40 H11        12.9019    9.3815   17.8862 H       1  <0>1        0.0624
     41 H12        14.2907    7.4384   17.3047 H       1  <0>1        0.0624
     42 H13        11.4415    6.2766   14.3212 H       1  <0>1        0.0642
     43 H14         9.2537    8.0482   14.2097 H       1  <0>1        0.1552
     44 H15        12.4515    4.8548   13.9060 H       1  <0>1        0.0624
     45 H16        13.8524    2.9195   13.3251 H       1  <0>1        0.0619
     46 H17        15.9647    2.5198   14.5201 H       1  <0>1        0.0654
     47 H18        15.3066    6.0190   16.8814 H       1  <0>1        0.0660
     48 H19        18.6005    2.8140   16.6364 H       1  <0>1        0.0660
     49 H20        17.0939    1.9759   16.1938 H       1  <0>1        0.0660
     50 H21        17.9565    2.9547   14.9830 H       1  <0>1        0.0660
     51 O4         11.4598   14.2427   22.1531 O.3     1  <0>1       -0.4806
     52 H          11.9411   14.8473   21.6232 H       1  <0>1        0.2951
@<TRIPOS>BOND
     1     1     2    1
     2     1    31    1
     3     1    32    1
     4     1    33    1
     5     2     7   ar
     6     2     3   ar
     7     3     4   ar
     8     3    34    1
     9     4     5    1
    10     4     6   ar
    11     6     7   ar
    12     6    12    1
    13     7     8    1
    14     8     9    1
    15     8    35    1
    16     8    36    1
    17     9    10    1
    18     9    37    1
    19     9    38    1
    20    10    11    2
    21    10    51    1
    22    12    13    2
    23    12    39    1
    24    13    21    1
    25    13    14    1
    26    14    19   ar
    27    14    15   ar
    28    15    16   ar
    29    15    40    1
    30    16    17   ar
    31    16    41    1
    32    17    18   ar
    33    17    23    1
    34    18    19   ar
    35    18    42    1
    36    19    20    1
    37    20    21   am
    38    20    43    1
    39    21    22    2
    40    23    28   ar
    41    23    24   ar
    42    24    25   ar
    43    24    44    1
    44    25    26   ar
    45    25    45    1
    46    26    27   ar
    47    26    46    1
    48    27    28   ar
    49    27    29    1
    50    28    47    1
    51    29    30    1
    52    30    48    1
    53    30    49    1
    54    30    50    1
    55    51    52    1
@<TRIPOS>MOLECULE
ZINC03834047
 45 47 0 0 0
SMALL
USER_CHARGES

@<TRIPOS>ATOM
      1 C1         13.8413   10.1725   17.8686 C.3     1  <0>1       -0.0375
      2 C2         13.1291   10.1758   16.5405 C.ar    1  <0>1       -0.0223
      3 C3         12.6498   11.2959   15.8584 C.ar    1  <0>1       -0.0231
      4 C4         12.0780   10.8701   14.7047 C.ar    1  <0>1        0.0167
      5 N1         12.1720    9.5178   14.6389 N.ar    1  <0>1       -0.3581
      6 H1         11.8383    8.9616   13.9176 H       1  <0>1        0.1656
      7 C5         12.8208    9.0668   15.7682 C.ar    1  <0>1        0.0434
      8 C6         13.1174    7.7233   16.0802 C.2     1  <0>1       -0.0254
      9 C7         12.2538    6.7174   15.6928 C.2     1  <0>1        0.0479
     10 C8         12.4710    5.2566   15.7918 C.ar    1  <0>1        0.0086
     11 C9         13.5236    4.4799   16.2661 C.ar    1  <0>1       -0.0486
     12 C10        13.4325    3.1043   16.2259 C.ar    1  <0>1       -0.0193
     13 C11        12.2919    2.4971   15.7134 C.ar    1  <0>1        0.1219
     14 C12        11.2370    3.2630   15.2466 C.ar    1  <0>1        0.0019
     15 C13        11.3169    4.6504   15.2764 C.ar    1  <0>1        0.0450
     16 N2         10.4276    5.6365   14.8674 N.am    1  <0>1       -0.2808
     17 C14        10.9239    6.8658   15.0873 C.2     1  <0>1        0.2490
     18 O1         10.3681    7.9188   14.8296 O.2     1  <0>1       -0.2698
     19 O2         12.2085    1.1410   15.6772 O.3     1  <0>1       -0.4951
     20 C15        13.3271    0.4084   16.1810 C.3     1  <0>1        0.0788
     21 C16        11.4368   11.7547   13.6668 C.3     1  <0>1       -0.0242
     22 C17        12.7530   12.7264   16.3210 C.3     1  <0>1       -0.0157
     23 C18        14.0540   13.3388   15.7984 C.3     1  <0>1        0.0488
     24 C19        14.1573   14.7693   16.2610 C.2     1  <0>1        0.3050
     25 O3         13.2801   15.2497   16.9391 O.2     1  <0>1       -0.2510
     26 H2         14.9154   10.2582   17.7050 H       1  <0>1        0.0278
     27 H3         13.6268    9.2417   18.3936 H       1  <0>1        0.0278
     28 H4         13.4966   11.0153   18.4677 H       1  <0>1        0.0278
     29 H5         14.0197    7.4815   16.6222 H       1  <0>1        0.0646
     30 H6         14.4092    4.9527   16.6640 H       1  <0>1        0.0625
     31 H7         14.2476    2.4985   16.5932 H       1  <0>1        0.0654
     32 H8         10.3558    2.7819   14.8486 H       1  <0>1        0.0673
     33 H9          9.5590    5.4601   14.4733 H       1  <0>1        0.1552
     34 H10        13.1309   -0.6602   16.0938 H       1  <0>1        0.0660
     35 H11        14.2171    0.6625   15.6053 H       1  <0>1        0.0660
     36 H12        13.4868    0.6641   17.2286 H       1  <0>1        0.0660
     37 H13        10.3797   11.8814   13.9004 H       1  <0>1        0.0292
     38 H14        11.9278   12.7279   13.6654 H       1  <0>1        0.0292
     39 H15        11.5392   11.2947   12.6840 H       1  <0>1        0.0292
     40 H16        11.9048   13.2942   15.9383 H       1  <0>1        0.0319
     41 H17        12.7488   12.7572   17.4106 H       1  <0>1        0.0319
     42 H18        14.9022   12.7712   16.1811 H       1  <0>1        0.0381
     43 H19        14.0582   13.3081   14.7088 H       1  <0>1        0.0381
     44 O4         15.2235   15.5098   15.9197 O.3     1  <0>1       -0.4806
     45 H          15.9037   15.1373   15.3939 H       1  <0>1        0.2951
@<TRIPOS>BOND
     1     1     2    1
     2     1    26    1
     3     1    27    1
     4     1    28    1
     5     2     7   ar
     6     2     3   ar
     7     3     4   ar
     8     3    22    1
     9     4     5   ar
    10     4    21    1
    11     5     6    1
    12     5     7   ar
    13     7     8    1
    14     8     9    2
    15     8    29    1
    16     9    17    1
    17     9    10    1
    18    10    15   ar
    19    10    11   ar
    20    11    12   ar
    21    11    30    1
    22    12    13   ar
    23    12    31    1
    24    13    14   ar
    25    13    19    1
    26    14    15   ar
    27    14    32    1
    28    15    16    1
    29    16    17   am
    30    16    33    1
    31    17    18    2
    32    19    20    1
    33    20    34    1
    34    20    35    1
    35    20    36    1
    36    21    37    1
    37    21    38    1
    38    21    39    1
    39    22    23    1
    40    22    40    1
    41    22    41    1
    42    23    24    1
    43    23    42    1
    44    23    43    1
    45    24    25    2
    46    24    44    1
    47    44    45    1
@<TRIPOS>MOLECULE
ZINC03834050
 36 39 0 0 0
SMALL
USER_CHARGES

@<TRIPOS>ATOM
      1 C1          9.9083   12.3543   17.1028 C.ar    1  <0>1       -0.0468
      2 C2         10.3580   12.0879   15.8253 C.ar    1  <0>1       -0.1343
      3 C3         10.9358   10.8581   15.5311 C.ar    1  <0>1        0.1696
      4 C4         11.0483    9.8976   16.5460 C.ar    1  <0>1       -0.1095
      5 C5         10.5876   10.1733   17.8290 C.ar    1  <0>1       -0.0277
      6 C6         10.0163   11.4009   18.1022 C.ar    1  <0>1       -0.1180
      7 Br1         9.3880   11.7834   19.8443 Br      1  <0>1       -0.0392
      8 C7         11.6932    8.7159   15.9318 C.2     1  <0>1       -0.1395
      9 C8         12.0105    7.5185   16.5441 C.2     1  <0>1        0.0594
     10 C9         12.6277    6.4896   15.8031 C.ar    1  <0>1       -0.0072
     11 C10        11.9867    5.4234   15.1870 C.ar    1  <0>1       -0.1408
     12 C11        12.9715    4.6591   14.5715 C.ar    1  <0>1       -0.1605
     13 C12        14.1767    5.2433   14.8175 C.ar    1  <0>1        0.0343
     14 N1         13.9798    6.3548   15.5629 N.ar    1  <0>1       -0.5236
     15 H1         14.6732    6.9564   15.8764 H       1  <0>1        0.4120
     16 C13        15.4933    4.6973   14.3175 C.3     1  <0>1       -0.0515
     17 C14        15.2829    3.2392   13.8928 C.3     1  <0>1       -0.1118
     18 C15        14.0709    3.1471   12.9618 C.3     1  <0>1       -0.1202
     19 C16        12.7891    3.3969   13.7657 C.3     1  <0>1       -0.0474
     20 C17        11.9226    9.0908   14.5306 C.2     1  <0>1        0.5546
     21 O1         12.4382    8.3904   13.6774 O.2     1  <0>1       -0.4737
     22 N2         11.4645   10.3418   14.3542 N.am    1  <0>1       -0.6563
     23 H2          9.4646   13.3138   17.3245 H       1  <0>1        0.1438
     24 H3         10.2647   12.8379   15.0537 H       1  <0>1        0.1399
     25 H4         10.6756    9.4306   18.6082 H       1  <0>1        0.1405
     26 H5         11.7860    7.3707   17.5901 H       1  <0>1        0.1472
     27 H6         10.9248    5.2265   15.1844 H       1  <0>1        0.1364
     28 H7         15.8329    5.2834   13.4635 H       1  <0>1        0.0762
     29 H8         16.2361    4.7438   15.1139 H       1  <0>1        0.0710
     30 H9         15.1096    2.6249   14.7763 H       1  <0>1        0.0671
     31 H10        16.1702    2.8819   13.3702 H       1  <0>1        0.0692
     32 H11        14.0314    2.1541   12.5141 H       1  <0>1        0.0657
     33 H12        14.1587    3.8970   12.1756 H       1  <0>1        0.0639
     34 H13        12.6063    2.5568   14.4357 H       1  <0>1        0.0677
     35 H14        11.9454    3.5142   13.0856 H       1  <0>1        0.0686
     36 H15        11.4985   10.8230   13.5126 H       1  <0>1        0.4208
@<TRIPOS>BOND
     1     1     6   ar
     2     1     2   ar
     3     1    23    1
     4     2     3   ar
     5     2    24    1
     6     3    22    1
     7     3     4   ar
     8     4     5   ar
     9     4     8    1
    10     5     6   ar
    11     5    25    1
    12     6     7    1
    13     8     9    2
    14     8    20    1
    15     9    10    1
    16     9    26    1
    17    10    14   ar
    18    10    11   ar
    19    11    12   ar
    20    11    27    1
    21    12    19    1
    22    12    13   ar
    23    13    14   ar
    24    13    16    1
    25    14    15    1
    26    16    17    1
    27    16    28    1
    28    16    29    1
    29    17    18    1
    30    17    30    1
    31    17    31    1
    32    18    19    1
    33    18    32    1
    34    18    33    1
    35    19    34    1
    36    19    35    1
    37    20    21    2
    38    20    22   am
    39    22    36    1
@<TRIPOS>MOLECULE
ZINC04617831
 59 63 0 0 0
SMALL
USER_CHARGES

@<TRIPOS>ATOM
      1 C1          8.6612    7.5350   11.0127 C.3     1  <0>1        0.0788
      2 O1          9.5259    7.5902   12.1490 O.3     1  <0>1       -0.4945
      3 C2          9.6629    8.7948   12.7618 C.ar    1  <0>1        0.1278
      4 C3          8.9772    9.9000   12.2839 C.ar    1  <0>1       -0.0193
      5 C4          9.1217   11.1262   12.9048 C.ar    1  <0>1       -0.0583
      6 C5          9.9465   11.2575   14.0083 C.ar    1  <0>1       -0.0610
      7 C6         10.6317   10.1643   14.4978 C.ar    1  <0>1       -0.0505
      8 C7         10.4930    8.9230   13.8799 C.ar    1  <0>1        0.0238
      9 C8         11.2267    7.7453   14.4016 C.ar    1  <0>1       -0.0126
     10 C9         10.5422    6.5526   14.6450 C.ar    1  <0>1       -0.0532
     11 C10        11.2206    5.4564   15.1292 C.ar    1  <0>1       -0.0515
     12 C11        12.5901    5.5382   15.3695 C.ar    1  <0>1        0.0084
     13 C12        13.2850    6.7338   15.1342 C.ar    1  <0>1        0.0422
     14 C13        12.5940    7.8340   14.6457 C.ar    1  <0>1       -0.0320
     15 N1         14.6246    6.5539   15.4584 N.am    1  <0>1       -0.2809
     16 C14        14.8575    5.3070   15.9019 C.2     1  <0>1        0.2490
     17 O2         15.9350    4.8634   16.2572 O.2     1  <0>1       -0.2698
     18 C15        13.5860    4.5720   15.8826 C.2     1  <0>1        0.0479
     19 C16        13.3680    3.2595   16.2571 C.2     1  <0>1       -0.0253
     20 C17        14.4016    2.5198   16.8679 C.ar    1  <0>1        0.0437
     21 C18        14.6359    1.1596   16.7196 C.ar    1  <0>1       -0.0187
     22 C19        15.7488    0.8531   17.4945 C.ar    1  <0>1       -0.0231
     23 C20        16.1748    1.9981   18.0958 C.ar    1  <0>1        0.0199
     24 N2         15.3654    3.0156   17.7219 N.ar    1  <0>1       -0.3579
     25 H1         15.4484    3.9390   18.0069 H       1  <0>1        0.1656
     26 C21        17.3653    2.0682   19.0228 C.3     1  <0>1       -0.0122
     27 C22        17.7084    0.6453   19.4788 C.3     1  <0>1       -0.0474
     28 C23        17.8059   -0.2741   18.2590 C.3     1  <0>1       -0.0487
     29 C24        16.4069   -0.4930   17.6703 C.3     1  <0>1       -0.0257
     30 C25        13.8362    0.1981   15.8788 C.3     1  <0>1       -0.0154
     31 C26        12.7065   -0.3982   16.7209 C.3     1  <0>1        0.0488
     32 C27        11.9068   -1.3596   15.8800 C.2     1  <0>1        0.3050
     33 O3         12.2093   -1.5486   14.7257 O.2     1  <0>1       -0.2510
     34 H2          9.0279    8.2148   10.2436 H       1  <0>1        0.0660
     35 H3          8.6419    6.5184   10.6198 H       1  <0>1        0.0660
     36 H4          7.6541    7.8296   11.3077 H       1  <0>1        0.0660
     37 H5          8.3322    9.8040   11.4230 H       1  <0>1        0.0654
     38 H6          8.5887   11.9861   12.5269 H       1  <0>1        0.0619
     39 H7         10.0546   12.2191   14.4878 H       1  <0>1        0.0618
     40 H8         11.2751   10.2707   15.3587 H       1  <0>1        0.0625
     41 H9          9.4812    6.4898   14.4533 H       1  <0>1        0.0624
     42 H10        10.6925    4.5333   15.3175 H       1  <0>1        0.0624
     43 H11        13.1175    8.7593   14.4553 H       1  <0>1        0.0642
     44 H12        15.3046    7.2405   15.3747 H       1  <0>1        0.1552
     45 H13        12.4063    2.8005   16.0821 H       1  <0>1        0.0646
     46 H14        18.2160    2.4999   18.4955 H       1  <0>1        0.0328
     47 H15        17.1199    2.6822   19.8894 H       1  <0>1        0.0328
     48 H16        18.6628    0.6529   20.0051 H       1  <0>1        0.0269
     49 H17        16.9284    0.2800   20.1468 H       1  <0>1        0.0269
     50 H18        18.2278   -1.2332   18.5595 H       1  <0>1        0.0269
     51 H19        18.4482    0.1860   17.5081 H       1  <0>1        0.0269
     52 H20        15.8143   -1.1053   18.3500 H       1  <0>1        0.0314
     53 H21        16.4889   -0.9906   16.7040 H       1  <0>1        0.0314
     54 H22        13.4127    0.7274   15.0252 H       1  <0>1        0.0319
     55 H23        14.4861   -0.6019   15.5242 H       1  <0>1        0.0319
     56 H24        13.1300   -0.9274   17.5744 H       1  <0>1        0.0381
     57 H25        12.0566    0.4019   17.0754 H       1  <0>1        0.0381
     58 O4         10.8583   -2.0060   16.4136 O.3     1  <0>1       -0.4806
     59 H          10.6237   -1.8594   17.3088 H       1  <0>1        0.2951
@<TRIPOS>BOND
     1     1     2    1
     2     1    34    1
     3     1    35    1
     4     1    36    1
     5     2     3    1
     6     3     8   ar
     7     3     4   ar
     8     4     5   ar
     9     4    37    1
    10     5     6   ar
    11     5    38    1
    12     6     7   ar
    13     6    39    1
    14     7     8   ar
    15     7    40    1
    16     8     9    1
    17     9    14   ar
    18     9    10   ar
    19    10    11   ar
    20    10    41    1
    21    11    12   ar
    22    11    42    1
    23    12    18    1
    24    12    13   ar
    25    13    14   ar
    26    13    15    1
    27    14    43    1
    28    15    16   am
    29    15    44    1
    30    16    17    2
    31    16    18    1
    32    18    19    2
    33    19    20    1
    34    19    45    1
    35    20    24   ar
    36    20    21   ar
    37    21    22   ar
    38    21    30    1
    39    22    29    1
    40    22    23   ar
    41    23    24   ar
    42    23    26    1
    43    24    25    1
    44    26    27    1
    45    26    46    1
    46    26    47    1
    47    27    28    1
    48    27    48    1
    49    27    49    1
    50    28    29    1
    51    28    50    1
    52    28    51    1
    53    29    52    1
    54    29    53    1
    55    30    31    1
    56    30    54    1
    57    30    55    1
    58    31    32    1
    59    31    56    1
    60    31    57    1
    61    32    33    2
    62    32    58    1
    63    58    59    1
@<TRIPOS>MOLECULE
ZINC04628819
 37 39 0 0 0
SMALL
USER_CHARGES

@<TRIPOS>ATOM
      1 C1         11.2428    5.2856   15.3873 C.ar    1  <0>1       -0.1144
      2 C2         10.2081    6.1915   15.2426 C.ar    1  <0>1       -0.1002
      3 C3         10.4831    7.5238   15.0036 C.ar    1  <0>1       -0.1182
      4 C4         11.8001    7.9531   14.9083 C.ar    1  <0>1        0.1242
      5 C5         12.8369    7.0410   15.0544 C.ar    1  <0>1       -0.1182
      6 C6         12.5555    5.7102   15.2938 C.ar    1  <0>1       -0.0993
      7 N1         12.0824    9.3038   14.6650 N.ar    1  <0>1       -0.4468
      8 C7         12.9481   10.0875   15.3665 C.ar    1  <0>1        0.2781
      9 N2         12.9657   11.2899   14.8693 N.ar    1  <0>1       -0.4896
     10 C8         12.1130   11.3621   13.8146 C.ar    1  <0>1        0.0890
     11 C9         11.5380   10.0889   13.6632 C.ar    1  <0>1        0.0181
     12 C10        10.6101    9.8610   12.6574 C.ar    1  <0>1       -0.0660
     13 C11        10.2622   10.8820   11.7992 C.ar    1  <0>1       -0.1804
     14 C12        10.8314   12.1444   11.9391 C.ar    1  <0>1        0.1232
     15 C13        11.7520   12.3890   12.9388 C.ar    1  <0>1       -0.1022
     16 O1         10.4790   13.1427   11.0859 O.3     1  <0>1       -0.2987
     17 C14         9.5216   12.8238   10.0741 C.3     1  <0>1        0.0306
     18 C15         9.2528   14.0627    9.2176 C.3     1  <0>1        0.1092
     19 H1          8.9478   14.8890    9.8595 H       1  <0>1        0.1175
     20 C16         8.1382   13.7574    8.2149 C.3     1  <0>1        0.0489
     21 O2          7.8068   14.9463    7.4945 O.3     1  <0>1       -0.5602
     22 O3         10.4427   14.4216    8.5124 O.3     1  <0>1       -0.5408
     23 H2         11.0252    4.2445   15.5741 H       1  <0>1        0.1315
     24 H3          9.1838    5.8563   15.3120 H       1  <0>1        0.1336
     25 H4          9.6746    8.2308   14.8903 H       1  <0>1        0.1291
     26 H5         13.8623    7.3720   14.9808 H       1  <0>1        0.1320
     27 H6         13.3614    5.0004   15.4075 H       1  <0>1        0.1347
     28 H7         13.5343    9.7590   16.2121 H       1  <0>1        0.2175
     29 H8         10.1644    8.8838   12.5441 H       1  <0>1        0.1271
     30 H9          9.5434   10.7014   11.0136 H       1  <0>1        0.1360
     31 H10        12.1910   13.3703   13.0433 H       1  <0>1        0.1417
     32 H11         9.9113   12.0241    9.4442 H       1  <0>1        0.0688
     33 H12         8.5930   12.4974   10.5425 H       1  <0>1        0.0745
     34 H13         8.4771   12.9922    7.5167 H       1  <0>1        0.0533
     35 H14         7.2580   13.3985    8.7482 H       1  <0>1        0.0590
     36 H15         7.1054   14.8267    6.8397 H       1  <0>1        0.3842
     37 H16        10.7724   13.7316    7.9206 H       1  <0>1        0.3733
@<TRIPOS>BOND
     1     1     6   ar
     2     1     2   ar
     3     1    23    1
     4     2     3   ar
     5     2    24    1
     6     3     4   ar
     7     3    25    1
     8     4     5   ar
     9     4     7    1
    10     5     6   ar
    11     5    26    1
    12     6    27    1
    13     7    11   ar
    14     7     8   ar
    15     8     9   ar
    16     8    28    1
    17     9    10   ar
    18    10    15   ar
    19    10    11   ar
    20    11    12   ar
    21    12    13   ar
    22    12    29    1
    23    13    14   ar
    24    13    30    1
    25    14    15   ar
    26    14    16    1
    27    15    31    1
    28    16    17    1
    29    17    18    1
    30    17    32    1
    31    17    33    1
    32    18    19    1
    33    18    20    1
    34    18    22    1
    35    20    21    1
    36    20    34    1
    37    20    35    1
    38    21    36    1
    39    22    37    1
@<TRIPOS>MOLECULE
ZINC04628820
 34 37 0 0 0
SMALL
USER_CHARGES

@<TRIPOS>ATOM
      1 C1          5.5780   12.4894   17.5210 C.ar    1  <0>1       -0.1141
      2 C2          6.6365   13.1755   18.0875 C.ar    1  <0>1       -0.0995
      3 C3          7.9228   12.9618   17.6320 C.ar    1  <0>1       -0.1180
      4 C4          8.1524   12.0571   16.6042 C.ar    1  <0>1        0.1237
      5 C5          7.0868   11.3739   16.0335 C.ar    1  <0>1       -0.1179
      6 C6          5.8035   11.5873   16.4975 C.ar    1  <0>1       -0.1001
      7 N1          9.4562   11.8381   16.1399 N.ar    1  <0>1       -0.4465
      8 C7         10.3559   12.7943   15.7767 C.ar    1  <0>1        0.2782
      9 N2         11.4688   12.2386   15.3946 N.ar    1  <0>1       -0.4899
     10 C8         11.3614   10.8877   15.4857 C.ar    1  <0>1        0.0885
     11 C9         10.0721   10.6099   15.9703 C.ar    1  <0>1        0.0187
     12 C10         9.6745    9.2964   16.1735 C.ar    1  <0>1       -0.0652
     13 C11        10.5472    8.2645   15.9023 C.ar    1  <0>1       -0.1790
     14 C12        11.8269    8.5316   15.4247 C.ar    1  <0>1        0.1251
     15 C13        12.2352    9.8331   15.2095 C.ar    1  <0>1       -0.1026
     16 O1         12.6778    7.5042   15.1613 O.3     1  <0>1       -0.3079
     17 C14        12.1910    6.1817   15.3978 C.3     1  <0>1        0.0725
     18 C15        13.2808    5.1667   15.0469 C.3     1  <0>1       -0.0100
     19 H1         14.3070    5.5124   15.1718 H       1  <0>1        0.1387
     20 C16        12.9895    3.6881   15.3108 C.3     1  <0>1       -0.0226
     21 O2         13.0138    4.2411   13.9915 O.3     1  <0>1       -0.3507
     22 H2          4.5731   12.6581   17.8789 H       1  <0>1        0.1316
     23 H3          6.4573   13.8789   18.8872 H       1  <0>1        0.1347
     24 H4          8.7492   13.4978   18.0751 H       1  <0>1        0.1319
     25 H5          7.2617   10.6728   15.2308 H       1  <0>1        0.1292
     26 H6          4.9748   11.0529   16.0572 H       1  <0>1        0.1337
     27 H7         10.1723   13.8583   15.8019 H       1  <0>1        0.2175
     28 H8          8.6828    9.0827   16.5439 H       1  <0>1        0.1278
     29 H9         10.2360    7.2426   16.0610 H       1  <0>1        0.1376
     30 H10        13.2298   10.0354   14.8406 H       1  <0>1        0.1415
     31 H11        11.9211    6.0763   16.4486 H       1  <0>1        0.0847
     32 H12        11.3131    6.0013   14.7774 H       1  <0>1        0.0751
     33 H13        13.8225    3.0519   15.6099 H       1  <0>1        0.1193
     34 H14        12.0197    3.4294   15.7360 H       1  <0>1        0.1143
@<TRIPOS>BOND
     1     1     6   ar
     2     1     2   ar
     3     1    22    1
     4     2     3   ar
     5     2    23    1
     6     3     4   ar
     7     3    24    1
     8     4     5   ar
     9     4     7    1
    10     5     6   ar
    11     5    25    1
    12     6    26    1
    13     7    11   ar
    14     7     8   ar
    15     8     9   ar
    16     8    27    1
    17     9    10   ar
    18    10    15   ar
    19    10    11   ar
    20    11    12   ar
    21    12    13   ar
    22    12    28    1
    23    13    14   ar
    24    13    29    1
    25    14    15   ar
    26    14    16    1
    27    15    30    1
    28    16    17    1
    29    17    18    1
    30    17    31    1
    31    17    32    1
    32    18    19    1
    33    18    21    1
    34    18    20    1
    35    20    21    1
    36    20    33    1
    37    20    34    1
@<TRIPOS>MOLECULE
ZINC04632533
 55 59 0 0 0
SMALL
USER_CHARGES

@<TRIPOS>ATOM
      1 C1         10.0834   16.8398   18.8998 C.ar    1  <0>1       -0.0617
      2 C2         11.2470   16.1166   19.0911 C.ar    1  <0>1       -0.0612
      3 C3         11.4112   14.8928   18.4747 C.ar    1  <0>1       -0.0540
      4 C4         10.4017   14.3858   17.6581 C.ar    1  <0>1       -0.0178
      5 C5          9.2337   15.1216   17.4645 C.ar    1  <0>1       -0.0540
      6 C6          9.0781   16.3415   18.0906 C.ar    1  <0>1       -0.0612
      7 C7         10.5723   13.0713   16.9930 C.ar    1  <0>1       -0.0161
      8 C8         11.7471   12.3422   17.1872 C.ar    1  <0>1       -0.0533
      9 C9         11.9090   11.1212   16.5713 C.ar    1  <0>1       -0.0515
     10 C10        10.8970   10.6135   15.7601 C.ar    1  <0>1        0.0084
     11 C11         9.7157   11.3416   15.5542 C.ar    1  <0>1        0.0421
     12 C12         9.5604   12.5712   16.1791 C.ar    1  <0>1       -0.0322
     13 N1          8.8798   10.6240   14.7067 N.am    1  <0>1       -0.2809
     14 C13         9.4424    9.4623   14.3330 C.2     1  <0>1        0.2490
     15 O1          8.9438    8.6301   13.5961 O.2     1  <0>1       -0.2698
     16 C14        10.7632    9.3709   14.9688 C.2     1  <0>1        0.0479
     17 C15        11.6806    8.3429   14.8568 C.2     1  <0>1       -0.0253
     18 C16        11.4576    7.2960   13.9392 C.ar    1  <0>1        0.0437
     19 C17        11.8179    5.9658   14.1074 C.ar    1  <0>1       -0.0187
     20 C18        11.4087    5.2873   12.9651 C.ar    1  <0>1       -0.0231
     21 C19        10.8177    6.1844   12.1282 C.ar    1  <0>1        0.0199
     22 N2         10.8410    7.4057   12.7096 N.ar    1  <0>1       -0.3579
     23 H1         10.4842    8.2221   12.3260 H       1  <0>1        0.1656
     24 C20        10.2443    5.8236   10.7783 C.3     1  <0>1       -0.0122
     25 C21        10.8044    4.4580   10.3636 C.3     1  <0>1       -0.0474
     26 C22        10.6196    3.4591   11.5085 C.3     1  <0>1       -0.0487
     27 C23        11.5675    3.8187   12.6591 C.3     1  <0>1       -0.0257
     28 C24        12.5188    5.3706   15.3014 C.3     1  <0>1       -0.0154
     29 C25        14.0325    5.4364   15.0894 C.3     1  <0>1        0.0488
     30 C26        14.7334    4.8412   16.2835 C.2     1  <0>1        0.3050
     31 O2         14.0882    4.4086   17.2089 O.2     1  <0>1       -0.2510
     32 H2          9.9590   17.7969   19.3846 H       1  <0>1        0.0618
     33 H3         12.0286   16.5107   19.7237 H       1  <0>1        0.0618
     34 H4         12.3199   14.3290   18.6250 H       1  <0>1        0.0624
     35 H5          8.4504   14.7357   16.8290 H       1  <0>1        0.0624
     36 H6          8.1716   16.9102   17.9452 H       1  <0>1        0.0618
     37 H7         12.5288   12.7358   17.8201 H       1  <0>1        0.0624
     38 H8         12.8172   10.5562   16.7207 H       1  <0>1        0.0624
     39 H9          8.6540   13.1402   16.0335 H       1  <0>1        0.0642
     40 H10         8.0023   10.9234   14.4217 H       1  <0>1        0.1552
     41 H11        12.5682    8.3418   15.4721 H       1  <0>1        0.0646
     42 H12         9.1576    5.7701   10.8436 H       1  <0>1        0.0328
     43 H13        10.5318    6.5764   10.0443 H       1  <0>1        0.0328
     44 H14        10.2742    4.1009    9.4808 H       1  <0>1        0.0269
     45 H15        11.8658    4.5551   10.1351 H       1  <0>1        0.0269
     46 H16        10.8443    2.4535   11.1533 H       1  <0>1        0.0269
     47 H17         9.5889    3.4982   11.8611 H       1  <0>1        0.0269
     48 H18        12.5968    3.6143   12.3642 H       1  <0>1        0.0314
     49 H19        11.3141    3.2305   13.5409 H       1  <0>1        0.0314
     50 H20        12.2524    5.9326   16.1966 H       1  <0>1        0.0319
     51 H21        12.2135    4.3310   15.4210 H       1  <0>1        0.0319
     52 H22        14.2989    4.8744   14.1943 H       1  <0>1        0.0381
     53 H23        14.3378    6.4760   14.9699 H       1  <0>1        0.0381
     54 O3         16.0743    4.7915   16.3187 O.3     1  <0>1       -0.4806
     55 H          16.5746    5.1270   15.6010 H       1  <0>1        0.2951
@<TRIPOS>BOND
     1     1     6   ar
     2     1     2   ar
     3     1    32    1
     4     2     3   ar
     5     2    33    1
     6     3     4   ar
     7     3    34    1
     8     4     5   ar
     9     4     7    1
    10     5     6   ar
    11     5    35    1
    12     6    36    1
    13     7    12   ar
    14     7     8   ar
    15     8     9   ar
    16     8    37    1
    17     9    10   ar
    18     9    38    1
    19    10    16    1
    20    10    11   ar
    21    11    12   ar
    22    11    13    1
    23    12    39    1
    24    13    14   am
    25    13    40    1
    26    14    15    2
    27    14    16    1
    28    16    17    2
    29    17    18    1
    30    17    41    1
    31    18    22   ar
    32    18    19   ar
    33    19    20   ar
    34    19    28    1
    35    20    27    1
    36    20    21   ar
    37    21    22   ar
    38    21    24    1
    39    22    23    1
    40    24    25    1
    41    24    42    1
    42    24    43    1
    43    25    26    1
    44    25    44    1
    45    25    45    1
    46    26    27    1
    47    26    46    1
    48    26    47    1
    49    27    48    1
    50    27    49    1
    51    28    29    1
    52    28    50    1
    53    28    51    1
    54    29    30    1
    55    29    52    1
    56    29    53    1
    57    30    31    2
    58    30    54    1
    59    54    55    1
@<TRIPOS>MOLECULE
ZINC04632535
 59 63 0 0 0
SMALL
USER_CHARGES

@<TRIPOS>ATOM
      1 C1          2.9397   15.4359   13.2880 C.3     1  <0>1        0.0788
      2 O1          3.7909   14.2881   13.2953 O.3     1  <0>1       -0.4951
      3 C2          4.9157   14.3589   14.0549 C.ar    1  <0>1        0.1207
      4 C3          5.1931   15.5110   14.7784 C.ar    1  <0>1       -0.0199
      5 C4          6.3385   15.5895   15.5481 C.ar    1  <0>1       -0.0577
      6 C5          7.2078   14.5188   15.6103 C.ar    1  <0>1       -0.0538
      7 C6          6.9364   13.3584   14.8874 C.ar    1  <0>1       -0.0144
      8 C7          5.7845   13.2818   14.1075 C.ar    1  <0>1       -0.0122
      9 C8          7.8710   12.2084   14.9486 C.ar    1  <0>1       -0.0160
     10 C9          7.5932   11.0486   14.2225 C.ar    1  <0>1       -0.0533
     11 C10         8.4587    9.9789   14.2765 C.ar    1  <0>1       -0.0515
     12 C11         9.6102   10.0568   15.0562 C.ar    1  <0>1        0.0084
     13 C12         9.8978   11.2178   15.7892 C.ar    1  <0>1        0.0421
     14 C13         9.0227   12.2933   15.7250 C.ar    1  <0>1       -0.0322
     15 N1         11.0926   11.0387   16.4765 N.am    1  <0>1       -0.2809
     16 C14        11.6150    9.8232   16.2411 C.2     1  <0>1        0.2490
     17 O2         12.6535    9.3884   16.7064 O.2     1  <0>1       -0.2698
     18 C15        10.7154    9.1109   15.3243 C.2     1  <0>1        0.0479
     19 C16        10.8684    7.8326   14.8209 C.2     1  <0>1       -0.0253
     20 C17        12.0631    7.1213   15.0546 C.ar    1  <0>1        0.0437
     21 C18        12.1795    5.7506   15.2422 C.ar    1  <0>1       -0.0187
     22 C19        13.5295    5.4811   15.4362 C.ar    1  <0>1       -0.0231
     23 C20        14.2096    6.6594   15.3769 C.ar    1  <0>1        0.0199
     24 N2         13.3301    7.6607   15.1445 N.ar    1  <0>1       -0.3579
     25 H1         13.5528    8.6006   15.0557 H       1  <0>1        0.1656
     26 C21        15.7053    6.7765   15.5510 C.3     1  <0>1       -0.0122
     27 C22        16.2198    5.4858   16.1989 C.3     1  <0>1       -0.0474
     28 C23        15.6827    4.2768   15.4281 C.3     1  <0>1       -0.0487
     29 C24        14.1760    4.1397   15.6782 C.3     1  <0>1       -0.0257
     30 C25        11.0564    4.7457   15.2343 C.3     1  <0>1       -0.0154
     31 C26        10.8480    4.2252   13.8107 C.3     1  <0>1        0.0488
     32 C27         9.7250    3.2203   13.8027 C.2     1  <0>1        0.3050
     33 O3          9.1504    2.9483   14.8301 O.2     1  <0>1       -0.2510
     34 H2          2.5958   15.6396   14.3021 H       1  <0>1        0.0660
     35 H3          3.4932   16.2964   12.9122 H       1  <0>1        0.0660
     36 H4          2.0807   15.2470   12.6442 H       1  <0>1        0.0660
     37 H5          4.5143   16.3499   14.7361 H       1  <0>1        0.0654
     38 H6          6.5520   16.4896   16.1055 H       1  <0>1        0.0619
     39 H7          8.0998   14.5818   16.2159 H       1  <0>1        0.0624
     40 H8          5.5694   12.3848   13.5457 H       1  <0>1        0.0660
     41 H9          6.6998   10.9905   13.6184 H       1  <0>1        0.0624
     42 H10         8.2452    9.0813   13.7151 H       1  <0>1        0.0624
     43 H11         9.2336   13.1949   16.2809 H       1  <0>1        0.0642
     44 H12        11.4977   11.7060   17.0521 H       1  <0>1        0.1552
     45 H13        10.0727    7.3787   14.2488 H       1  <0>1        0.0646
     46 H14        16.1785    6.9130   14.5786 H       1  <0>1        0.0328
     47 H15        15.9346    7.6268   16.1933 H       1  <0>1        0.0328
     48 H16        17.3095    5.4768   16.1751 H       1  <0>1        0.0269
     49 H17        15.8787    5.4375   17.2330 H       1  <0>1        0.0269
     50 H18        15.8630    4.4162   14.3622 H       1  <0>1        0.0269
     51 H19        16.1911    3.3743   15.7676 H       1  <0>1        0.0269
     52 H20        13.7561    3.4014   14.9951 H       1  <0>1        0.0314
     53 H21        14.0016    3.8286   16.7082 H       1  <0>1        0.0314
     54 H22        11.3085    3.9139   15.8920 H       1  <0>1        0.0319
     55 H23        10.1406    5.2215   15.5848 H       1  <0>1        0.0319
     56 H24        10.5959    5.0570   13.1530 H       1  <0>1        0.0381
     57 H25        11.7638    3.7494   13.4601 H       1  <0>1        0.0381
     58 O4          9.3631    2.6273   12.6541 O.3     1  <0>1       -0.4806
     59 H           9.8088    2.8382   11.8573 H       1  <0>1        0.2951
@<TRIPOS>BOND
     1     1     2    1
     2     1    34    1
     3     1    35    1
     4     1    36    1
     5     2     3    1
     6     3     8   ar
     7     3     4   ar
     8     4     5   ar
     9     4    37    1
    10     5     6   ar
    11     5    38    1
    12     6     7   ar
    13     6    39    1
    14     7     8   ar
    15     7     9    1
    16     8    40    1
    17     9    14   ar
    18     9    10   ar
    19    10    11   ar
    20    10    41    1
    21    11    12   ar
    22    11    42    1
    23    12    18    1
    24    12    13   ar
    25    13    14   ar
    26    13    15    1
    27    14    43    1
    28    15    16   am
    29    15    44    1
    30    16    17    2
    31    16    18    1
    32    18    19    2
    33    19    20    1
    34    19    45    1
    35    20    24   ar
    36    20    21   ar
    37    21    22   ar
    38    21    30    1
    39    22    29    1
    40    22    23   ar
    41    23    24   ar
    42    23    26    1
    43    24    25    1
    44    26    27    1
    45    26    46    1
    46    26    47    1
    47    27    28    1
    48    27    48    1
    49    27    49    1
    50    28    29    1
    51    28    50    1
    52    28    51    1
    53    29    52    1
    54    29    53    1
    55    30    31    1
    56    30    54    1
    57    30    55    1
    58    31    32    1
    59    31    56    1
    60    31    57    1
    61    32    33    2
    62    32    58    1
    63    58    59    1
