@<TRIPOS>MOLECULE
ZINC00007489
 29 31 0 0 0
SMALL
USER_CHARGES

@<TRIPOS>ATOM
      1 C1         12.7294    9.3405   12.2696 C.3     1  <0>1        0.0788
      2 O1         12.0297   10.5730   12.0867 O.3     1  <0>1       -0.4950
      3 C2         11.3070   11.0349   13.1418 C.ar    1  <0>1        0.1222
      4 C3         11.2757   10.3095   14.3296 C.ar    1  <0>1       -0.0179
      5 C4         10.5471   10.7659   15.4065 C.ar    1  <0>1       -0.0323
      6 C5          9.8393   11.9557   15.3087 C.ar    1  <0>1        0.0735
      7 C6          9.8658   12.6935   14.1134 C.ar    1  <0>1        0.0928
      8 C7         10.6085   12.2202   13.0284 C.ar    1  <0>1        0.0075
      9 N1          9.0940   13.7938   14.3090 N.ar    1  <0>1       -0.2353
     10 C8          8.6075   13.7802   15.5157 C.ar    1  <0>1        0.1015
     11 N2          9.0336   12.6692   16.1792 N.ar    1  <0>1       -0.2985
     12 C9          8.7198   12.3176   17.4987 C.ar    1  <0>1        0.0481
     13 C10         8.2483   11.0435   17.7857 C.ar    1  <0>1       -0.0378
     14 C11         7.9457   10.6979   19.0882 C.ar    1  <0>1       -0.0598
     15 C12         8.1005   11.6230   20.1043 C.ar    1  <0>1       -0.0616
     16 C13         8.5641   12.8946   19.8207 C.ar    1  <0>1       -0.0598
     17 C14         8.8742   13.2442   18.5210 C.ar    1  <0>1       -0.0378
     18 H1         13.4409    9.4447   13.0888 H       1  <0>1        0.0660
     19 H2         12.0171    8.5498   12.5054 H       1  <0>1        0.0660
     20 H3         13.2639    9.0868   11.3543 H       1  <0>1        0.0660
     21 H4         11.8256    9.3832   14.4074 H       1  <0>1        0.0655
     22 H5         10.5264   10.1983   16.3251 H       1  <0>1        0.0640
     23 H6         10.6362   12.7797   12.1049 H       1  <0>1        0.0676
     24 H7          7.9609   14.5390   15.9309 H       1  <0>1        0.1032
     25 H8          8.1226   10.3222   16.9918 H       1  <0>1        0.0638
     26 H9          7.5834    9.7055   19.3128 H       1  <0>1        0.0618
     27 H10         7.8593   11.3517   21.1215 H       1  <0>1        0.0618
     28 H11         8.6840   13.6149   20.6164 H       1  <0>1        0.0618
     29 H12         9.2368   14.2374   18.3004 H       1  <0>1        0.0638
@<TRIPOS>BOND
     1     1     2    1
     2     1    18    1
     3     1    19    1
     4     1    20    1
     5     2     3    1
     6     3     8   ar
     7     3     4   ar
     8     4     5   ar
     9     4    21    1
    10     5     6   ar
    11     5    22    1
    12     6    11   ar
    13     6     7   ar
    14     7     8   ar
    15     7     9   ar
    16     8    23    1
    17     9    10   ar
    18    10    11   ar
    19    10    24    1
    20    11    12    1
    21    12    17   ar
    22    12    13   ar
    23    13    14   ar
    24    13    25    1
    25    14    15   ar
    26    14    26    1
    27    15    16   ar
    28    15    27    1
    29    16    17   ar
    30    16    28    1
    31    17    29    1
@<TRIPOS>MOLECULE
ZINC00008074
 39 41 0 0 0
SMALL
USER_CHARGES

@<TRIPOS>ATOM
      1 C1          3.4678   17.3400   19.0969 C.3     1  <0>1        0.0788
      2 O1          4.3668   16.6179   19.9410 O.3     1  <0>1       -0.4951
      3 C2          5.3476   15.9035   19.3296 C.ar    1  <0>1        0.1201
      4 C3          6.2547   15.1793   20.0914 C.ar    1  <0>1       -0.0194
      5 C4          7.2513   14.4532   19.4737 C.ar    1  <0>1       -0.0505
      6 C5          7.3477   14.4475   18.0831 C.ar    1  <0>1       -0.0162
      7 C6          6.4391   15.1802   17.3213 C.ar    1  <0>1       -0.0505
      8 C7          5.4411   15.8997   17.9444 C.ar    1  <0>1       -0.0194
      9 C8          8.4188   13.6680   17.4157 C.ar    1  <0>1        0.0008
     10 C9          8.5220   13.6647   16.0316 C.ar    1  <0>1       -0.0433
     11 C10         9.5503   12.9058   15.4485 C.ar    1  <0>1        0.0046
     12 C11         9.7111   12.8505   14.0530 C.ar    1  <0>1       -0.0071
     13 C12        10.7199   12.1039   13.5189 C.ar    1  <0>1        0.1622
     14 C13        11.5990   11.3903   14.3483 C.ar    1  <0>1        0.1635
     15 C14        11.4666   11.4257   15.7058 C.ar    1  <0>1        0.0097
     16 C15        10.4377   12.1853   16.2884 C.ar    1  <0>1        0.0747
     17 N1         10.2910   12.2326   17.6170 N.ar    1  <0>1       -0.2543
     18 C16         9.3389   12.9339   18.1794 C.ar    1  <0>1        0.0360
     19 O2         12.5958   10.6535   13.7914 O.3     1  <0>1       -0.4914
     20 C17        13.4588    9.9485   14.6860 C.3     1  <0>1        0.0790
     21 O3         10.8757   12.0508   12.1695 O.3     1  <0>1       -0.4914
     22 C18         9.9492   12.7988   11.3796 C.3     1  <0>1        0.0790
     23 H1          4.0282   18.0613   18.5021 H       1  <0>1        0.0660
     24 H2          2.9536   16.6439   18.4340 H       1  <0>1        0.0660
     25 H3          2.7360   17.8653   19.7105 H       1  <0>1        0.0660
     26 H4          6.1794   15.1841   21.1687 H       1  <0>1        0.0654
     27 H5          7.9565   13.8901   20.0668 H       1  <0>1        0.0625
     28 H6          6.5138   15.1809   16.2438 H       1  <0>1        0.0625
     29 H7          4.7339   16.4638   17.3545 H       1  <0>1        0.0654
     30 H8          7.8293   14.2248   15.4210 H       1  <0>1        0.0631
     31 H9          9.0390   13.3960   13.4073 H       1  <0>1        0.0662
     32 H10        12.1505   10.8711   16.3311 H       1  <0>1        0.0677
     33 H11         9.2572   12.9437   19.2562 H       1  <0>1        0.0836
     34 H12        14.2080    9.4022   14.1131 H       1  <0>1        0.0660
     35 H13        13.9543   10.6587   15.3481 H       1  <0>1        0.0660
     36 H14        12.8723    9.2469   15.2793 H       1  <0>1        0.0660
     37 H15         8.9373   12.4424   11.5717 H       1  <0>1        0.0660
     38 H16        10.0183   13.8547   11.6411 H       1  <0>1        0.0660
     39 H17        10.1853   12.6698   10.3233 H       1  <0>1        0.0660
@<TRIPOS>BOND
     1     1     2    1
     2     1    23    1
     3     1    24    1
     4     1    25    1
     5     2     3    1
     6     3     8   ar
     7     3     4   ar
     8     4     5   ar
     9     4    26    1
    10     5     6   ar
    11     5    27    1
    12     6     7   ar
    13     6     9    1
    14     7     8   ar
    15     7    28    1
    16     8    29    1
    17     9    18   ar
    18     9    10   ar
    19    10    11   ar
    20    10    30    1
    21    11    16   ar
    22    11    12   ar
    23    12    13   ar
    24    12    31    1
    25    13    14   ar
    26    13    21    1
    27    14    15   ar
    28    14    19    1
    29    15    16   ar
    30    15    32    1
    31    16    17   ar
    32    17    18   ar
    33    18    33    1
    34    19    20    1
    35    20    34    1
    36    20    35    1
    37    20    36    1
    38    21    22    1
    39    22    37    1
    40    22    38    1
    41    22    39    1
@<TRIPOS>MOLECULE
ZINC00008075
 32 34 0 0 0
SMALL
USER_CHARGES

@<TRIPOS>ATOM
      1 C1         11.6437    8.2572   15.0028 C.3     1  <0>1        0.0790
      2 O1         11.7482    8.9276   16.2603 O.3     1  <0>1       -0.4914
      3 C2         11.1591   10.1489   16.3596 C.ar    1  <0>1        0.1622
      4 C3         10.5078   10.6738   15.2817 C.ar    1  <0>1       -0.0071
      5 C4          9.8985   11.9360   15.3845 C.ar    1  <0>1        0.0046
      6 C5          9.2193   12.5058   14.2941 C.ar    1  <0>1       -0.0433
      7 C6          8.6411   13.7550   14.4673 C.ar    1  <0>1        0.0013
      8 C7          8.7516   14.4023   15.7078 C.ar    1  <0>1        0.0360
      9 N1          9.3890   13.8551   16.7119 N.ar    1  <0>1       -0.2543
     10 C8          9.9665   12.6531   16.6063 C.ar    1  <0>1        0.0747
     11 C9         10.6453   12.0840   17.6970 C.ar    1  <0>1        0.0097
     12 C10        11.2274   10.8565   17.5691 C.ar    1  <0>1        0.1635
     13 O2         11.8821   10.3117   18.6280 O.3     1  <0>1       -0.4914
     14 C11        11.9178   11.0789   19.8331 C.3     1  <0>1        0.0790
     15 C12         7.9117   14.4022   13.3491 C.ar    1  <0>1       -0.0094
     16 C13         7.3282   15.6552   13.5109 C.ar    1  <0>1       -0.0470
     17 C14         6.6718   16.2127   12.4685 C.ar    1  <0>1       -0.0237
     18 S1          6.8546   14.9718   11.1989 S.2     1  <0>1       -0.1045
     19 C15         7.8025   13.7839   12.1350 C.ar    1  <0>1       -0.0166
     20 H1         12.1553    7.2964   15.0596 H       1  <0>1        0.0660
     21 H2         10.5927    8.0956   14.7634 H       1  <0>1        0.0660
     22 H3         12.1035    8.8682   14.2259 H       1  <0>1        0.0660
     23 H4         10.4608   10.1223   14.3544 H       1  <0>1        0.0662
     24 H5          9.1491   11.9866   13.3497 H       1  <0>1        0.0631
     25 H6          8.2961   15.3729   15.8384 H       1  <0>1        0.0836
     26 H7         10.7060   12.6168   18.6345 H       1  <0>1        0.0677
     27 H8         12.4113   12.0319   19.6426 H       1  <0>1        0.0660
     28 H9         10.9001   11.2594   20.1792 H       1  <0>1        0.0660
     29 H10        12.4695   10.5304   20.5967 H       1  <0>1        0.0660
     30 H11         7.3989   16.1748   14.4549 H       1  <0>1        0.0629
     31 H12         6.1659   17.1655   12.4173 H       1  <0>1        0.0693
     32 H13         8.1883   12.8245   11.8234 H       1  <0>1        0.0699
@<TRIPOS>BOND
     1     1     2    1
     2     1    20    1
     3     1    21    1
     4     1    22    1
     5     2     3    1
     6     3    12   ar
     7     3     4   ar
     8     4     5   ar
     9     4    23    1
    10     5    10   ar
    11     5     6   ar
    12     6     7   ar
    13     6    24    1
    14     7     8   ar
    15     7    15    1
    16     8     9   ar
    17     8    25    1
    18     9    10   ar
    19    10    11   ar
    20    11    12   ar
    21    11    26    1
    22    12    13    1
    23    13    14    1
    24    14    27    1
    25    14    28    1
    26    14    29    1
    27    15    19   ar
    28    15    16   ar
    29    16    17   ar
    30    16    30    1
    31    17    18   ar
    32    17    31    1
    33    18    19   ar
    34    19    32    1
@<TRIPOS>MOLECULE
ZINC00008076
 28 30 0 0 0
SMALL
USER_CHARGES

@<TRIPOS>ATOM
      1 C1         12.0849   11.2715   10.9440 C.3     1  <0>1        0.0788
      2 O1         12.0422   10.4929   12.1416 O.3     1  <0>1       -0.4950
      3 C2         11.3031   10.9839   13.1703 C.ar    1  <0>1        0.1221
      4 C3         10.6267   12.1987   13.0169 C.ar    1  <0>1       -0.0193
      5 C4          9.8851   12.7154   14.0327 C.ar    1  <0>1       -0.0491
      6 C5          9.7892   12.0219   15.2517 C.ar    1  <0>1        0.0012
      7 C6          9.0309   12.5320   16.3194 C.ar    1  <0>1       -0.0434
      8 C7          8.9806   11.7952   17.4936 C.ar    1  <0>1        0.0013
      9 C8          9.6785   10.5802   17.5784 C.ar    1  <0>1        0.0360
     10 N1         10.3800   10.1217   16.5729 N.ar    1  <0>1       -0.2543
     11 C9         10.4666   10.7870   15.4153 C.ar    1  <0>1        0.0745
     12 C10        11.2250   10.2776   14.3484 C.ar    1  <0>1        0.0060
     13 C11         8.1944   12.2876   18.6515 C.ar    1  <0>1       -0.0094
     14 C12         8.1361   11.5569   19.8344 C.ar    1  <0>1       -0.0470
     15 C13         7.4090   12.0383   20.8677 C.ar    1  <0>1       -0.0237
     16 S1          6.7686   13.5649   20.2010 S.2     1  <0>1       -0.1045
     17 C14         7.5153   13.4719   18.5825 C.ar    1  <0>1       -0.0166
     18 H1         12.5045   12.2532   11.1637 H       1  <0>1        0.0660
     19 H2         12.7075   10.7674   10.2049 H       1  <0>1        0.0660
     20 H3         11.0753   11.3877   10.5501 H       1  <0>1        0.0660
     21 H4         10.6981   12.7349   12.0821 H       1  <0>1        0.0654
     22 H5          9.3714   13.6565   13.9035 H       1  <0>1        0.0625
     23 H6          8.5033   13.4700   16.2285 H       1  <0>1        0.0631
     24 H7          9.6360   10.0106   18.4950 H       1  <0>1        0.0836
     25 H8         11.7480    9.3386   14.4540 H       1  <0>1        0.0676
     26 H9          8.6642   10.6194   19.9259 H       1  <0>1        0.0629
     27 H10         7.2551   11.6088   21.8467 H       1  <0>1        0.0693
     28 H11         7.4470   14.1696   17.7610 H       1  <0>1        0.0699
@<TRIPOS>BOND
     1     1     2    1
     2     1    18    1
     3     1    19    1
     4     1    20    1
     5     2     3    1
     6     3    12   ar
     7     3     4   ar
     8     4     5   ar
     9     4    21    1
    10     5     6   ar
    11     5    22    1
    12     6    11   ar
    13     6     7   ar
    14     7     8   ar
    15     7    23    1
    16     8     9   ar
    17     8    13    1
    18     9    10   ar
    19     9    24    1
    20    10    11   ar
    21    11    12   ar
    22    12    25    1
    23    13    17   ar
    24    13    14   ar
    25    14    15   ar
    26    14    26    1
    27    15    16   ar
    28    15    27    1
    29    16    17   ar
    30    17    28    1
@<TRIPOS>MOLECULE
ZINC00008077
 39 41 0 0 0
SMALL
USER_CHARGES

@<TRIPOS>ATOM
      1 C1          4.3427   16.5928   21.3743 C.3     1  <0>1        0.0789
      2 O1          4.3797   16.6345   19.9463 O.3     1  <0>1       -0.4922
      3 C2          5.3582   15.9174   19.3332 C.ar    1  <0>1        0.1551
      4 C3          6.2625   15.1890   20.0929 C.ar    1  <0>1       -0.0165
      5 C4          7.2567   14.4601   19.4740 C.ar    1  <0>1       -0.0504
      6 C5          7.3534   14.4549   18.0835 C.ar    1  <0>1       -0.0135
      7 C6          6.4409   15.1824   17.3211 C.ar    1  <0>1       -0.0150
      8 C7          5.4508   15.9145   17.9462 C.ar    1  <0>1        0.1653
      9 F1          4.5683   16.6240   17.2091 F       1  <0>1       -0.2016
     10 C8          8.4217   13.6718   17.4159 C.ar    1  <0>1        0.0009
     11 C9          8.5180   13.6594   16.0313 C.ar    1  <0>1       -0.0433
     12 C10         9.5502   12.9057   15.4485 C.ar    1  <0>1        0.0046
     13 C11         9.7111   12.8505   14.0531 C.ar    1  <0>1       -0.0071
     14 C12        10.7199   12.1039   13.5189 C.ar    1  <0>1        0.1622
     15 C13        11.5994   11.3908   14.3482 C.ar    1  <0>1        0.1635
     16 C14        11.4668   11.4262   15.7058 C.ar    1  <0>1        0.0097
     17 C15        10.4378   12.1855   16.2884 C.ar    1  <0>1        0.0747
     18 N1         10.2910   12.2326   17.6170 N.ar    1  <0>1       -0.2543
     19 C16         9.3387   12.9335   18.1793 C.ar    1  <0>1        0.0360
     20 O2         12.5966   10.6547   13.7915 O.3     1  <0>1       -0.4914
     21 C17        13.4601    9.9502   14.6861 C.3     1  <0>1        0.0790
     22 O3         10.8752   12.0502   12.1695 O.3     1  <0>1       -0.4914
     23 C18         9.9483   12.7977   11.3795 C.3     1  <0>1        0.0790
     24 H1          4.2019   15.5636   21.7042 H       1  <0>1        0.0660
     25 H2          5.2813   16.9771   21.7733 H       1  <0>1        0.0660
     26 H3          3.5166   17.2060   21.7343 H       1  <0>1        0.0660
     27 H4          6.1876   15.1925   21.1703 H       1  <0>1        0.0655
     28 H5          7.9596   13.8934   20.0666 H       1  <0>1        0.0625
     29 H6          6.5107   15.1768   16.2434 H       1  <0>1        0.0653
     30 H7          7.8224   14.2157   15.4205 H       1  <0>1        0.0631
     31 H8          9.0397   13.3969   13.4073 H       1  <0>1        0.0662
     32 H9         12.1509   10.8717   16.3310 H       1  <0>1        0.0677
     33 H10         9.2568   12.9433   19.2561 H       1  <0>1        0.0836
     34 H11        14.2096    9.4043   14.1131 H       1  <0>1        0.0660
     35 H12        13.9551   10.6606   15.3482 H       1  <0>1        0.0660
     36 H13        12.8740    9.2483   15.2793 H       1  <0>1        0.0660
     37 H14        10.1841   12.6682   10.3232 H       1  <0>1        0.0660
     38 H15         8.9365   12.4411   11.5722 H       1  <0>1        0.0660
     39 H16        10.0172   13.8536   11.6404 H       1  <0>1        0.0660
@<TRIPOS>BOND
     1     1     2    1
     2     1    24    1
     3     1    25    1
     4     1    26    1
     5     2     3    1
     6     3     8   ar
     7     3     4   ar
     8     4     5   ar
     9     4    27    1
    10     5     6   ar
    11     5    28    1
    12     6     7   ar
    13     6    10    1
    14     7     8   ar
    15     7    29    1
    16     8     9    1
    17    10    19   ar
    18    10    11   ar
    19    11    12   ar
    20    11    30    1
    21    12    17   ar
    22    12    13   ar
    23    13    14   ar
    24    13    31    1
    25    14    15   ar
    26    14    22    1
    27    15    16   ar
    28    15    20    1
    29    16    17   ar
    30    16    32    1
    31    17    18   ar
    32    18    19   ar
    33    19    33    1
    34    20    21    1
    35    21    34    1
    36    21    35    1
    37    21    36    1
    38    22    23    1
    39    23    37    1
    40    23    38    1
    41    23    39    1
@<TRIPOS>MOLECULE
ZINC00008079
 36 38 0 0 0
SMALL
USER_CHARGES

@<TRIPOS>ATOM
      1 C1         11.7280    8.0277   14.9141 C.3     1  <0>1        0.0790
      2 O1         11.8312    8.9226   13.8048 O.3     1  <0>1       -0.4914
      3 C2         11.1973   10.1200   13.9167 C.ar    1  <0>1        0.1622
      4 C3         10.5048   10.4134   15.0550 C.ar    1  <0>1       -0.0071
      5 C4          9.8493   11.6514   15.1707 C.ar    1  <0>1        0.0046
      6 C5          9.1273   11.9853   16.3285 C.ar    1  <0>1       -0.0436
      7 C6          8.5041   13.2265   16.3734 C.ar    1  <0>1       -0.0034
      8 C7          8.6093   14.0936   15.2726 C.ar    1  <0>1        0.0357
      9 N1          9.2917   13.7649   14.2054 N.ar    1  <0>1       -0.2543
     10 C8          9.9135   12.5844   14.1039 C.ar    1  <0>1        0.0747
     11 C9         10.6355   12.2510   12.9460 C.ar    1  <0>1        0.0097
     12 C10        11.2623   11.0416   12.8608 C.ar    1  <0>1        0.1635
     13 O2         11.9593   10.7258   11.7380 O.3     1  <0>1       -0.4914
     14 C11        11.9897   11.7040   10.6968 C.3     1  <0>1        0.0790
     15 C12         7.7315   13.6290   17.5670 C.2     1  <0>1       -0.0427
     16 C13         8.2515   13.8248   18.7666 C.2     1  <0>1       -0.0802
     17 C14         7.1826   14.2266   19.7564 C.3     1  <0>1       -0.0339
     18 C15         5.9806   14.6595   18.8862 C.3     1  <0>1       -0.0456
     19 C16         6.2401   13.8715   17.5818 C.3     1  <0>1       -0.0271
     20 H1         10.6795    7.7885   15.0917 H       1  <0>1        0.0660
     21 H2         12.2774    7.1122   14.6946 H       1  <0>1        0.0660
     22 H3         12.1485    8.4997   15.8021 H       1  <0>1        0.0660
     23 H4         10.4601    9.6981   15.8628 H       1  <0>1        0.0662
     24 H5          9.0590   11.2982   17.1589 H       1  <0>1        0.0631
     25 H6          8.1196   15.0555   15.3099 H       1  <0>1        0.0836
     26 H7         10.6941   12.9500   12.1248 H       1  <0>1        0.0677
     27 H8         10.9731   11.9102   10.3621 H       1  <0>1        0.0660
     28 H9         12.4413   12.6217   11.0735 H       1  <0>1        0.0660
     29 H10        12.5780   11.3262    9.8604 H       1  <0>1        0.0660
     30 H11         9.2984   13.7124   19.0069 H       1  <0>1        0.0575
     31 H12         6.9101   13.3791   20.3853 H       1  <0>1        0.0308
     32 H13         7.5270   15.0597   20.3693 H       1  <0>1        0.0308
     33 H14         5.0385   14.3580   19.3438 H       1  <0>1        0.0271
     34 H15         5.9978   15.7340   18.7033 H       1  <0>1        0.0271
     35 H16         5.9433   14.4631   16.7157 H       1  <0>1        0.0313
     36 H17         5.7017   12.9239   17.5976 H       1  <0>1        0.0313
@<TRIPOS>BOND
     1     1     2    1
     2     1    20    1
     3     1    21    1
     4     1    22    1
     5     2     3    1
     6     3    12   ar
     7     3     4   ar
     8     4     5   ar
     9     4    23    1
    10     5    10   ar
    11     5     6   ar
    12     6     7   ar
    13     6    24    1
    14     7     8   ar
    15     7    15    1
    16     8     9   ar
    17     8    25    1
    18     9    10   ar
    19    10    11   ar
    20    11    12   ar
    21    11    26    1
    22    12    13    1
    23    13    14    1
    24    14    27    1
    25    14    28    1
    26    14    29    1
    27    15    19    1
    28    15    16    2
    29    16    17    1
    30    16    30    1
    31    17    18    1
    32    17    31    1
    33    17    32    1
    34    18    19    1
    35    18    33    1
    36    18    34    1
    37    19    35    1
    38    19    36    1
@<TRIPOS>MOLECULE
ZINC00017525
 26 28 0 0 0
SMALL
USER_CHARGES

@<TRIPOS>ATOM
      1 C1         10.0235   12.6027   13.7708 C.ar    1  <0>1       -0.0616
      2 C2         10.8578   12.5197   14.8705 C.ar    1  <0>1       -0.0598
      3 C3         11.4848   11.3273   15.1750 C.ar    1  <0>1       -0.0378
      4 C4         11.2766   10.2112   14.3758 C.ar    1  <0>1        0.0481
      5 C5         10.4428   10.2992   13.2690 C.ar    1  <0>1       -0.0378
      6 C6          9.8138   11.4927   12.9732 C.ar    1  <0>1       -0.0598
      7 N1         11.9112    9.0002   14.6821 N.ar    1  <0>1       -0.2985
      8 C7         13.2377    8.8250   14.9382 C.ar    1  <0>1        0.1015
      9 N2         13.4824    7.5721   15.1903 N.ar    1  <0>1       -0.2353
     10 C8         12.3312    6.8557   15.1137 C.ar    1  <0>1        0.0928
     11 C9         11.3060    7.7595   14.7869 C.ar    1  <0>1        0.0735
     12 C10        10.0026    7.3077   14.6394 C.ar    1  <0>1       -0.0323
     13 C11         9.7147    5.9711   14.8144 C.ar    1  <0>1       -0.0181
     14 C12        10.7244    5.0698   15.1386 C.ar    1  <0>1        0.1190
     15 C13        12.0268    5.5033   15.2885 C.ar    1  <0>1        0.0073
     16 O1         10.4266    3.7539   15.3085 O.3     1  <0>1       -0.5067
     17 H1          9.5343   13.5362   13.5348 H       1  <0>1        0.0618
     18 H2         11.0191   13.3881   15.4921 H       1  <0>1        0.0618
     19 H3         12.1360   11.2631   16.0343 H       1  <0>1        0.0638
     20 H4         10.2825    9.4340   12.6428 H       1  <0>1        0.0638
     21 H5          9.1617   11.5607   12.1150 H       1  <0>1        0.0618
     22 H6         13.9781    9.6113   14.9329 H       1  <0>1        0.1032
     23 H7          9.2148    8.0022   14.3874 H       1  <0>1        0.0640
     24 H8          8.6995    5.6211   14.6989 H       1  <0>1        0.0655
     25 H9         12.8068    4.8001   15.5402 H       1  <0>1        0.0676
     26 H10        10.1936    3.5175   16.2168 H       1  <0>1        0.2921
@<TRIPOS>BOND
     1     1     6   ar
     2     1     2   ar
     3     1    17    1
     4     2     3   ar
     5     2    18    1
     6     3     4   ar
     7     3    19    1
     8     4     5   ar
     9     4     7    1
    10     5     6   ar
    11     5    20    1
    12     6    21    1
    13     7    11   ar
    14     7     8   ar
    15     8     9   ar
    16     8    22    1
    17     9    10   ar
    18    10    15   ar
    19    10    11   ar
    20    11    12   ar
    21    12    13   ar
    22    12    23    1
    23    13    14   ar
    24    13    24    1
    25    14    15   ar
    26    14    16    1
    27    15    25    1
    28    16    26    1
@<TRIPOS>MOLECULE
ZINC00600761
 48 51 0 0 0
SMALL
USER_CHARGES

@<TRIPOS>ATOM
      1 C1         10.5681   11.8989   15.1168 C.3     1  <0>1       -0.0380
      2 C2          9.8216   10.9459   14.2193 C.ar    1  <0>1       -0.0291
      3 C3          8.6208   11.3286   13.6528 C.ar    1  <0>1       -0.0553
      4 C4          7.9309   10.4560   12.8338 C.ar    1  <0>1       -0.0401
      5 C5          8.4455    9.1918   12.5726 C.ar    1  <0>1        0.0354
      6 C6          9.6535    8.8063   13.1356 C.ar    1  <0>1       -0.0190
      7 C7         10.3442    9.6853   13.9581 C.ar    1  <0>1        0.0383
      8 N1         11.5616    9.3006   14.5277 N.pl3   1  <0>1       -0.2833
      9 C8         11.8413    7.9580   14.7235 C.ar    1  <0>1        0.2200
     10 N2         10.8947    7.0604   14.4886 N.ar    1  <0>1       -0.2226
     11 C9         11.1223    5.7686   14.6640 C.ar    1  <0>1        0.0332
     12 C10        12.3688    5.3539   15.0994 C.ar    1  <0>1       -0.0174
     13 C11        13.3465    6.3228   15.3387 C.ar    1  <0>1        0.0775
     14 N3         13.0449    7.6049   15.1460 N.ar    1  <0>1       -0.2142
     15 C12        14.6979    5.9293   15.8062 C.ar    1  <0>1        0.0186
     16 C13        15.6768    6.8984   16.0460 C.ar    1  <0>1       -0.0497
     17 C14        16.9219    6.4798   16.4817 C.ar    1  <0>1       -0.0430
     18 C15        17.1559    5.1287   16.6643 C.ar    1  <0>1        0.0276
     19 N4         16.2122    4.2375   16.4303 N.ar    1  <0>1       -0.2626
     20 C16        15.0108    4.5884   16.0193 C.ar    1  <0>1        0.0367
     21 N5          7.7461    8.3090   11.7438 N.am    1  <0>1       -0.2814
     22 C17         6.4044    8.3942   11.6480 C.2     1  <0>1        0.2483
     23 O1          5.7931    9.1738   12.3525 O.2     1  <0>1       -0.2699
     24 C18         5.6763    7.5397   10.6864 C.ar    1  <0>1        0.0370
     25 C19         6.3758    6.6477    9.8719 C.ar    1  <0>1       -0.0496
     26 C20         5.6896    5.8494    8.9803 C.ar    1  <0>1       -0.0610
     27 C21         4.3123    5.9397    8.8841 C.ar    1  <0>1       -0.0617
     28 C22         3.6134    6.8256    9.6848 C.ar    1  <0>1       -0.0610
     29 C23         4.2867    7.6256   10.5847 C.ar    1  <0>1       -0.0496
     30 H1         11.2481   12.5049   14.5179 H       1  <0>1        0.0278
     31 H2          9.8576   12.5482   15.6284 H       1  <0>1        0.0278
     32 H3         11.1387   11.3330   15.8532 H       1  <0>1        0.0278
     33 H4          8.2188   12.3105   13.8542 H       1  <0>1        0.0621
     34 H5          6.9908   10.7568   12.3956 H       1  <0>1        0.0636
     35 H6         10.0553    7.8243   12.9345 H       1  <0>1        0.0655
     36 H7         12.2106    9.9737   14.7859 H       1  <0>1        0.1550
     37 H8         10.3438    5.0457   14.4693 H       1  <0>1        0.0831
     38 H9         12.5808    4.3057   15.2503 H       1  <0>1        0.0654
     39 H10        15.4667    7.9469   15.8947 H       1  <0>1        0.0625
     40 H11        17.7024    7.2001   16.6773 H       1  <0>1        0.0633
     41 H12        18.1263    4.7985   17.0043 H       1  <0>1        0.0829
     42 H13        14.2629    3.8297   15.8420 H       1  <0>1        0.0836
     43 H14         8.2266    7.6353   11.2376 H       1  <0>1        0.1551
     44 H15         7.4513    6.5797    9.9425 H       1  <0>1        0.0625
     45 H16         6.2292    5.1558    8.3524 H       1  <0>1        0.0618
     46 H17         3.7803    5.3157    8.1814 H       1  <0>1        0.0618
     47 H18         2.5383    6.8907    9.6055 H       1  <0>1        0.0618
     48 H19         3.7401    8.3169   11.2090 H       1  <0>1        0.0625
@<TRIPOS>BOND
     1     1     2    1
     2     1    30    1
     3     1    31    1
     4     1    32    1
     5     2     7   ar
     6     2     3   ar
     7     3     4   ar
     8     3    33    1
     9     4     5   ar
    10     4    34    1
    11     5     6   ar
    12     5    21    1
    13     6     7   ar
    14     6    35    1
    15     7     8    1
    16     8     9    1
    17     8    36    1
    18     9    14   ar
    19     9    10   ar
    20    10    11   ar
    21    11    12   ar
    22    11    37    1
    23    12    13   ar
    24    12    38    1
    25    13    14   ar
    26    13    15    1
    27    15    20   ar
    28    15    16   ar
    29    16    17   ar
    30    16    39    1
    31    17    18   ar
    32    17    40    1
    33    18    19   ar
    34    18    41    1
    35    19    20   ar
    36    20    42    1
    37    21    22   am
    38    21    43    1
    39    22    23    2
    40    22    24    1
    41    24    29   ar
    42    24    25   ar
    43    25    26   ar
    44    25    44    1
    45    26    27   ar
    46    26    45    1
    47    27    28   ar
    48    27    46    1
    49    28    29   ar
    50    28    47    1
    51    29    48    1
@<TRIPOS>MOLECULE
ZINC00601820
 40 43 0 0 0
SMALL
USER_CHARGES

@<TRIPOS>ATOM
      1 C1         12.4243    9.7646   14.1182 C.3     1  <0>1        0.0167
      2 N1         11.7643    9.0213   15.1943 N.ar    1  <0>1       -0.2953
      3 C2         10.7796    9.6271   15.9332 C.ar    1  <0>1        0.1482
      4 C3         10.1296    8.9231   16.9700 C.ar    1  <0>1        0.0365
      5 C4         10.4964    7.5895   17.2629 C.ar    1  <0>1       -0.0366
      6 C5         11.4838    6.9953   16.5241 C.ar    1  <0>1        0.0502
      7 C6         12.1341    7.7520   15.4520 C.ar    1  <0>1        0.2604
      8 O1         13.0136    7.2309   14.7897 O.2     1  <0>1       -0.2670
      9 C7         11.8913    5.5991   16.8068 C.ar    1  <0>1        0.0239
     10 C8         12.9142    5.3388   17.7195 C.ar    1  <0>1        0.0502
     11 C9         13.2860    4.0349   17.9821 C.ar    1  <0>1       -0.0427
     12 C10        12.6540    2.9886   17.3346 C.ar    1  <0>1       -0.0590
     13 C11        11.6429    3.2400   16.4248 C.ar    1  <0>1       -0.0427
     14 C12        11.2578    4.5390   16.1571 C.ar    1  <0>1        0.0502
     15 Cl1         9.9890    4.8524   15.0145 Cl      1  <0>1       -0.0829
     16 Cl2        13.7136    6.6510   18.5277 Cl      1  <0>1       -0.0829
     17 C13         9.1245    9.5773   17.6977 C.ar    1  <0>1        0.0418
     18 N2          8.8237   10.8227   17.3805 N.ar    1  <0>1       -0.2219
     19 C14         9.4534   11.4525   16.3950 C.ar    1  <0>1        0.2214
     20 N3         10.4080   10.8771   15.6805 N.ar    1  <0>1       -0.1961
     21 N4          9.0991   12.7569   16.1049 N.pl3   1  <0>1       -0.2835
     22 C15         8.0221   13.3490   16.7618 C.ar    1  <0>1        0.0364
     23 C16         6.9131   12.5939   17.1418 C.ar    1  <0>1       -0.0223
     24 C17         5.8697   13.2169   17.7939 C.ar    1  <0>1        0.0293
     25 N5          5.9079   14.5111   18.0498 N.ar    1  <0>1       -0.2631
     26 C18         6.9373   15.2607   17.7022 C.ar    1  <0>1        0.0293
     27 C19         8.0228   14.7132   17.0511 C.ar    1  <0>1       -0.0223
     28 H1         13.1764    9.1313   13.6475 H       1  <0>1        0.0457
     29 H2         12.9033   10.6525   14.5307 H       1  <0>1        0.0457
     30 H3         11.6841   10.0628   13.3756 H       1  <0>1        0.0457
     31 H4         10.0048    7.0478   18.0575 H       1  <0>1        0.0633
     32 H5         14.0748    3.8319   18.6914 H       1  <0>1        0.0632
     33 H6         12.9515    1.9709   17.5402 H       1  <0>1        0.0618
     34 H7         11.1536    2.4186   15.9224 H       1  <0>1        0.0632
     35 H8          8.6078    9.0725   18.5008 H       1  <0>1        0.0838
     36 H9          9.6003   13.2600   15.4442 H       1  <0>1        0.1550
     37 H10         6.8735   11.5352   16.9319 H       1  <0>1        0.0651
     38 H11         5.0082   12.6392   18.0952 H       1  <0>1        0.0830
     39 H12         6.9291   16.3163   17.9303 H       1  <0>1        0.0830
     40 H13         8.8615   15.3324   16.7689 H       1  <0>1        0.0651
@<TRIPOS>BOND
     1     1     2    1
     2     1    28    1
     3     1    29    1
     4     1    30    1
     5     2     7   ar
     6     2     3   ar
     7     3    20   ar
     8     3     4   ar
     9     4     5   ar
    10     4    17   ar
    11     5     6   ar
    12     5    31    1
    13     6     7   ar
    14     6     9    1
    15     7     8    2
    16     9    14   ar
    17     9    10   ar
    18    10    11   ar
    19    10    16    1
    20    11    12   ar
    21    11    32    1
    22    12    13   ar
    23    12    33    1
    24    13    14   ar
    25    13    34    1
    26    14    15    1
    27    17    18   ar
    28    17    35    1
    29    18    19   ar
    30    19    20   ar
    31    19    21    1
    32    21    22    1
    33    21    36    1
    34    22    27   ar
    35    22    23   ar
    36    23    24   ar
    37    23    37    1
    38    24    25   ar
    39    24    38    1
    40    25    26   ar
    41    26    27   ar
    42    26    39    1
    43    27    40    1
@<TRIPOS>MOLECULE
ZINC00838734
 41 44 0 0 0
SMALL
USER_CHARGES

@<TRIPOS>ATOM
      1 C1         14.9198    5.3821   15.6526 C.3     1  <0>1        0.0167
      2 N1         13.5331    4.9101   15.6349 N.ar    1  <0>1       -0.2953
      3 C2         12.5167    5.7977   15.3866 C.ar    1  <0>1        0.1482
      4 C3         11.1754    5.3583   15.3611 C.ar    1  <0>1        0.0365
      5 C4         10.8671    4.0000   15.6023 C.ar    1  <0>1       -0.0366
      6 C5         11.8874    3.1225   15.8544 C.ar    1  <0>1        0.0502
      7 C6         13.2683    3.6102   15.8681 C.ar    1  <0>1        0.2604
      8 O1         14.1822    2.8362   16.0912 O.2     1  <0>1       -0.2670
      9 C7         11.5972    1.6926   16.1115 C.ar    1  <0>1        0.0239
     10 C8         11.3721    1.2465   17.4144 C.ar    1  <0>1        0.0502
     11 C9         11.0968   -0.0869   17.6467 C.ar    1  <0>1       -0.0427
     12 C10        11.0548   -0.9814   16.5923 C.ar    1  <0>1       -0.0590
     13 C11        11.2821   -0.5466   15.2990 C.ar    1  <0>1       -0.0427
     14 C12        11.5533    0.7850   15.0524 C.ar    1  <0>1        0.0502
     15 Cl1        11.8394    1.3284   13.4287 Cl      1  <0>1       -0.0829
     16 Cl2        11.4322    2.3661   18.7398 Cl      1  <0>1       -0.0829
     17 C13        10.1665    6.2971   15.0979 C.ar    1  <0>1        0.0418
     18 N2         10.5126    7.5519   14.8800 N.ar    1  <0>1       -0.2219
     19 C14        11.7862    7.9288   14.9069 C.ar    1  <0>1        0.2214
     20 N3         12.7725    7.0797   15.1512 N.ar    1  <0>1       -0.1961
     21 N4         12.0929    9.2554   14.6718 N.pl3   1  <0>1       -0.2836
     22 C15        11.0858   10.1500   14.2981 C.ar    1  <0>1        0.0336
     23 C16        10.0300    9.7181   13.5054 C.ar    1  <0>1       -0.0405
     24 C17         9.0339   10.6032   13.1425 C.ar    1  <0>1       -0.0600
     25 C18         9.0923   11.9208   13.5585 C.ar    1  <0>1       -0.0616
     26 C19        10.1450   12.3555   14.3430 C.ar    1  <0>1       -0.0600
     27 C20        11.1415   11.4742   14.7139 C.ar    1  <0>1       -0.0405
     28 H1         15.5853    4.5464   15.8689 H       1  <0>1        0.0457
     29 H2         15.0338    6.1459   16.4220 H       1  <0>1        0.0457
     30 H3         15.1720    5.8053   14.6804 H       1  <0>1        0.0457
     31 H4          9.8423    3.6595   15.5876 H       1  <0>1        0.0633
     32 H5         10.9180   -0.4326   18.6541 H       1  <0>1        0.0632
     33 H6         10.8438   -2.0238   16.7798 H       1  <0>1        0.0618
     34 H7         11.2479   -1.2501   14.4802 H       1  <0>1        0.0632
     35 H8          9.1286    5.9993   15.0745 H       1  <0>1        0.0838
     36 H9         13.0070    9.5659   14.7660 H       1  <0>1        0.1550
     37 H10         9.9859    8.6903   13.1769 H       1  <0>1        0.0636
     38 H11         8.2106   10.2671   12.5296 H       1  <0>1        0.0618
     39 H12         8.3143   12.6119   13.2699 H       1  <0>1        0.0618
     40 H13        10.1875   13.3850   14.6662 H       1  <0>1        0.0618
     41 H14        11.9636   11.8143   15.3263 H       1  <0>1        0.0636
@<TRIPOS>BOND
     1     1     2    1
     2     1    28    1
     3     1    29    1
     4     1    30    1
     5     2     7   ar
     6     2     3   ar
     7     3    20   ar
     8     3     4   ar
     9     4     5   ar
    10     4    17   ar
    11     5     6   ar
    12     5    31    1
    13     6     7   ar
    14     6     9    1
    15     7     8    2
    16     9    14   ar
    17     9    10   ar
    18    10    11   ar
    19    10    16    1
    20    11    12   ar
    21    11    32    1
    22    12    13   ar
    23    12    33    1
    24    13    14   ar
    25    13    34    1
    26    14    15    1
    27    17    18   ar
    28    17    35    1
    29    18    19   ar
    30    19    20   ar
    31    19    21    1
    32    21    22    1
    33    21    36    1
    34    22    27   ar
    35    22    23   ar
    36    23    24   ar
    37    23    37    1
    38    24    25   ar
    39    24    38    1
    40    25    26   ar
    41    25    39    1
    42    26    27   ar
    43    26    40    1
    44    27    41    1
@<TRIPOS>MOLECULE
ZINC01488976
 40 43 0 0 0
SMALL
USER_CHARGES

@<TRIPOS>ATOM
      1 C1          6.5908   13.6901   20.7686 C.ar    1  <0>1       -0.0611
      2 C2          6.1987   13.9074   19.4499 C.ar    1  <0>1       -0.0611
      3 C3          7.0155   13.5757   18.4093 C.ar    1  <0>1       -0.0506
      4 C4          8.2685   13.0126   18.6722 C.ar    1  <0>1        0.0257
      5 C5          8.6670   12.7863   20.0154 C.ar    1  <0>1        0.0088
      6 C6          7.8032   13.1392   21.0603 C.ar    1  <0>1       -0.0521
      7 C7          9.9332   12.2133   20.2355 C.ar    1  <0>1        0.0757
      8 N1         10.6849   11.9094   19.2025 N.ar    1  <0>1       -0.1515
      9 N2         10.3303   12.1059   17.9875 N.ar    1  <0>1       -0.1332
     10 C8          9.1679   12.6364   17.6488 C.ar    1  <0>1        0.1532
     11 N3          8.8398   12.8254   16.3159 N.pl3   1  <0>1       -0.2975
     12 C9          9.6864   12.3446   15.3126 C.ar    1  <0>1        0.0339
     13 C10         9.8027   13.0328   14.1113 C.ar    1  <0>1       -0.0390
     14 C11        10.6399   12.5565   13.1218 C.ar    1  <0>1       -0.0402
     15 C12        11.3631   11.3943   13.3254 C.ar    1  <0>1        0.0594
     16 C13        11.2496   10.7059   14.5215 C.ar    1  <0>1        0.0610
     17 C14        10.4129   11.1785   15.5152 C.ar    1  <0>1       -0.0207
     18 Cl1        12.1589    9.2487   14.7736 Cl      1  <0>1       -0.0820
     19 Cl2        12.4151   10.7988   12.0794 Cl      1  <0>1       -0.0820
     20 C15        10.4197   11.9512   21.6375 C.3     1  <0>1        0.0173
     21 C16        11.1621   13.1602   22.1458 C.ar    1  <0>1       -0.0387
     22 C17        12.5297   13.2854   21.9548 C.ar    1  <0>1       -0.0401
     23 C18        13.1759   14.4104   22.4312 C.ar    1  <0>1        0.0278
     24 N4         12.5087   15.3523   23.0688 N.ar    1  <0>1       -0.2632
     25 C19        11.2087   15.2646   23.2724 C.ar    1  <0>1        0.0278
     26 C20        10.4946   14.1710   22.8205 C.ar    1  <0>1       -0.0401
     27 H1          5.9238   13.9627   21.5731 H       1  <0>1        0.0618
     28 H2          5.2325   14.3458   19.2482 H       1  <0>1        0.0618
     29 H3          6.6991   13.7496   17.3914 H       1  <0>1        0.0625
     30 H4          8.0950   12.9761   22.0873 H       1  <0>1        0.0624
     31 H5          8.0226   13.2912   16.0789 H       1  <0>1        0.1536
     32 H6          9.2384   13.9397   13.9513 H       1  <0>1        0.0636
     33 H7         10.7301   13.0913   12.1878 H       1  <0>1        0.0633
     34 H8         10.3277   10.6440   16.4498 H       1  <0>1        0.0651
     35 H9          9.5672   11.7491   22.2861 H       1  <0>1        0.0377
     36 H10        11.0870   11.0894   21.6354 H       1  <0>1        0.0377
     37 H11        13.0823   12.5152   21.4374 H       1  <0>1        0.0635
     38 H12        14.2404   14.5171   22.2835 H       1  <0>1        0.0829
     39 H13        10.6964   16.0561   23.7989 H       1  <0>1        0.0829
     40 H14         9.4303   14.1045   22.9910 H       1  <0>1        0.0635
@<TRIPOS>BOND
     1     1     6   ar
     2     1     2   ar
     3     1    27    1
     4     2     3   ar
     5     2    28    1
     6     3     4   ar
     7     3    29    1
     8     4    10   ar
     9     4     5   ar
    10     5     6   ar
    11     5     7   ar
    12     6    30    1
    13     7     8   ar
    14     7    20    1
    15     8     9   ar
    16     9    10   ar
    17    10    11    1
    18    11    12    1
    19    11    31    1
    20    12    17   ar
    21    12    13   ar
    22    13    14   ar
    23    13    32    1
    24    14    15   ar
    25    14    33    1
    26    15    16   ar
    27    15    19    1
    28    16    17   ar
    29    16    18    1
    30    17    34    1
    31    20    21    1
    32    20    35    1
    33    20    36    1
    34    21    26   ar
    35    21    22   ar
    36    22    23   ar
    37    22    37    1
    38    23    24   ar
    39    23    38    1
    40    24    25   ar
    41    25    26   ar
    42    25    39    1
    43    26    40    1
@<TRIPOS>MOLECULE
ZINC02047503
 45 48 0 0 0
SMALL
USER_CHARGES

@<TRIPOS>ATOM
      1 C1         13.1404    8.0154   14.7577 C.3     1  <0>1        0.0167
      2 N1         12.3766    6.8628   15.2417 N.ar    1  <0>1       -0.2953
      3 C2         13.0394    5.7708   15.7423 C.ar    1  <0>1        0.1482
      4 C3         12.3182    4.6539   16.2174 C.ar    1  <0>1        0.0365
      5 C4         10.9054    4.6473   16.1712 C.ar    1  <0>1       -0.0366
      6 C5         10.2528    5.7395   15.6652 C.ar    1  <0>1        0.0502
      7 C6         11.0311    6.8838   15.1858 C.ar    1  <0>1        0.2604
      8 O1         10.4584    7.8596   14.7344 O.2     1  <0>1       -0.2670
      9 C7          8.7728    5.7633   15.6028 C.ar    1  <0>1        0.0239
     10 C8          8.1117    5.2914   14.4681 C.ar    1  <0>1        0.0502
     11 C9          6.7315    5.3114   14.4184 C.ar    1  <0>1       -0.0427
     12 C10         6.0052    5.8080   15.4859 C.ar    1  <0>1       -0.0590
     13 C11         6.6545    6.2820   16.6115 C.ar    1  <0>1       -0.0427
     14 C12         8.0341    6.2628   16.6761 C.ar    1  <0>1        0.0502
     15 Cl1         8.8472    6.8593   18.0891 Cl      1  <0>1       -0.0829
     16 Cl2         9.0216    4.6751   13.1244 Cl      1  <0>1       -0.0829
     17 C13        13.0340    3.5599   16.7264 C.ar    1  <0>1        0.0418
     18 N2         14.3523    3.6211   16.7451 N.ar    1  <0>1       -0.2219
     19 C14        14.9977    4.6910   16.2939 C.ar    1  <0>1        0.2214
     20 N3         14.3660    5.7468   15.8043 N.ar    1  <0>1       -0.1961
     21 N4         16.3787    4.7025   16.3368 N.pl3   1  <0>1       -0.2836
     22 C15        17.0677    3.6536   16.9527 C.ar    1  <0>1        0.0339
     23 C16        16.5239    3.0209   18.0636 C.ar    1  <0>1       -0.0405
     24 C17        17.2046    1.9815   18.6663 C.ar    1  <0>1       -0.0597
     25 C18        18.4312    1.5772   18.1717 C.ar    1  <0>1       -0.0563
     26 C19        18.9779    2.2085   17.0696 C.ar    1  <0>1       -0.0204
     27 C20        18.2998    3.2453   16.4588 C.ar    1  <0>1       -0.0351
     28 C21        20.3152    1.7651   16.5347 C.3     1  <0>1        0.0693
     29 O2         21.3545    2.5062   17.1769 O.3     1  <0>1       -0.3904
     30 H1         12.4536    8.7802   14.3951 H       1  <0>1        0.0457
     31 H2         13.7962    7.7016   13.9457 H       1  <0>1        0.0457
     32 H3         13.7398    8.4222   15.5722 H       1  <0>1        0.0457
     33 H4         10.3491    3.7940   16.5299 H       1  <0>1        0.0633
     34 H5          6.2184    4.9424   13.5426 H       1  <0>1        0.0632
     35 H6          4.9263    5.8259   15.4400 H       1  <0>1        0.0618
     36 H7          6.0816    6.6684   17.4415 H       1  <0>1        0.0632
     37 H8         12.5173    2.6861   17.0948 H       1  <0>1        0.0838
     38 H9         16.8702    5.4385   15.9397 H       1  <0>1        0.1550
     39 H10        15.5680    3.3388   18.4529 H       1  <0>1        0.0636
     40 H11        16.7805    1.4866   19.5275 H       1  <0>1        0.0618
     41 H12        18.9634    0.7668   18.6474 H       1  <0>1        0.0621
     42 H13        18.7275    3.7382   15.5982 H       1  <0>1        0.0639
     43 H14        20.4513    0.7020   16.7328 H       1  <0>1        0.0607
     44 H15        20.3534    1.9424   15.4599 H       1  <0>1        0.0607
     45 H16        22.2449    2.2727   16.8808 H       1  <0>1        0.2098
@<TRIPOS>BOND
     1     1     2    1
     2     1    30    1
     3     1    31    1
     4     1    32    1
     5     2     7   ar
     6     2     3   ar
     7     3    20   ar
     8     3     4   ar
     9     4     5   ar
    10     4    17   ar
    11     5     6   ar
    12     5    33    1
    13     6     7   ar
    14     6     9    1
    15     7     8    2
    16     9    14   ar
    17     9    10   ar
    18    10    11   ar
    19    10    16    1
    20    11    12   ar
    21    11    34    1
    22    12    13   ar
    23    12    35    1
    24    13    14   ar
    25    13    36    1
    26    14    15    1
    27    17    18   ar
    28    17    37    1
    29    18    19   ar
    30    19    20   ar
    31    19    21    1
    32    21    22    1
    33    21    38    1
    34    22    27   ar
    35    22    23   ar
    36    23    24   ar
    37    23    39    1
    38    24    25   ar
    39    24    40    1
    40    25    26   ar
    41    25    41    1
    42    26    27   ar
    43    26    28    1
    44    27    42    1
    45    28    29    1
    46    28    43    1
    47    28    44    1
    48    29    45    1
@<TRIPOS>MOLECULE
ZINC03815223
 45 48 0 0 0
SMALL
USER_CHARGES

@<TRIPOS>ATOM
      1 C1         13.0300    8.4741   14.5233 C.3     1  <0>1        0.0167
      2 N1         12.7615    7.1617   15.1167 N.ar    1  <0>1       -0.2953
      3 C2         13.8088    6.3672   15.5098 C.ar    1  <0>1        0.1482
      4 C3         13.5675    5.0999   16.0831 C.ar    1  <0>1        0.0365
      5 C4         12.2426    4.6387   16.2575 C.ar    1  <0>1       -0.0366
      6 C5         11.2041    5.4386   15.8627 C.ar    1  <0>1        0.0502
      7 C6         11.4893    6.7475   15.2709 C.ar    1  <0>1        0.2604
      8 O1         10.5711    7.4655   14.9169 O.2     1  <0>1       -0.2670
      9 C7          9.8042    4.9839   16.0321 C.ar    1  <0>1        0.0239
     10 C8          9.1707    4.2714   15.0131 C.ar    1  <0>1        0.0502
     11 C9          7.8670    3.8466   15.1791 C.ar    1  <0>1       -0.0427
     12 C10         7.1861    4.1348   16.3482 C.ar    1  <0>1       -0.0590
     13 C11         7.8066    4.8448   17.3602 C.ar    1  <0>1       -0.0427
     14 C12         9.1116    5.2712   17.2089 C.ar    1  <0>1        0.0502
     15 Cl1         9.8882    6.1632   18.4796 Cl      1  <0>1       -0.0829
     16 Cl2        10.0212    3.9149   13.5423 Cl      1  <0>1       -0.0829
     17 C13        14.6663    4.3186   16.4711 C.ar    1  <0>1        0.0418
     18 N2         15.8811    4.7978   16.2795 N.ar    1  <0>1       -0.2219
     19 C14        16.0703    5.9977   15.7416 C.ar    1  <0>1        0.2214
     20 N3         15.0654    6.7708   15.3599 N.ar    1  <0>1       -0.1961
     21 N4         17.3633    6.4533   15.5689 N.pl3   1  <0>1       -0.2835
     22 C15        18.4382    5.7118   16.0679 C.ar    1  <0>1        0.0370
     23 C16        18.2958    4.9849   17.2437 C.ar    1  <0>1       -0.0402
     24 C17        19.3577    4.2521   17.7364 C.ar    1  <0>1       -0.0566
     25 C18        20.5625    4.2351   17.0592 C.ar    1  <0>1       -0.0198
     26 C19        20.7122    4.9632   15.8873 C.ar    1  <0>1        0.1219
     27 C20        19.6489    5.7001   15.3895 C.ar    1  <0>1        0.0013
     28 O2         21.8989    4.9493   15.2251 O.3     1  <0>1       -0.4951
     29 C21        22.9510    4.1685   15.7956 C.3     1  <0>1        0.0788
     30 H1         13.1228    8.3720   13.4422 H       1  <0>1        0.0457
     31 H2         12.2088    9.1524   14.7551 H       1  <0>1        0.0457
     32 H3         13.9580    8.8743   14.9315 H       1  <0>1        0.0457
     33 H4         12.0526    3.6700   16.6957 H       1  <0>1        0.0633
     34 H5          7.3769    3.2915   14.3929 H       1  <0>1        0.0632
     35 H6          6.1653    3.8043   16.4713 H       1  <0>1        0.0618
     36 H7          7.2695    5.0667   18.2705 H       1  <0>1        0.0632
     37 H8         14.5214    3.3438   16.9128 H       1  <0>1        0.0838
     38 H9         17.5252    7.2876   15.1014 H       1  <0>1        0.1550
     39 H10        17.3543    4.9934   17.7729 H       1  <0>1        0.0636
     40 H11        19.2452    3.6875   18.6502 H       1  <0>1        0.0619
     41 H12        21.3897    3.6575   17.4445 H       1  <0>1        0.0654
     42 H13        19.7622    6.2637   14.4752 H       1  <0>1        0.0673
     43 H14        23.8401    4.2443   15.1696 H       1  <0>1        0.0660
     44 H15        22.6377    3.1262   15.8571 H       1  <0>1        0.0660
     45 H16        23.1777    4.5393   16.7951 H       1  <0>1        0.0660
@<TRIPOS>BOND
     1     1     2    1
     2     1    30    1
     3     1    31    1
     4     1    32    1
     5     2     7   ar
     6     2     3   ar
     7     3    20   ar
     8     3     4   ar
     9     4     5   ar
    10     4    17   ar
    11     5     6   ar
    12     5    33    1
    13     6     7   ar
    14     6     9    1
    15     7     8    2
    16     9    14   ar
    17     9    10   ar
    18    10    11   ar
    19    10    16    1
    20    11    12   ar
    21    11    34    1
    22    12    13   ar
    23    12    35    1
    24    13    14   ar
    25    13    36    1
    26    14    15    1
    27    17    18   ar
    28    17    37    1
    29    18    19   ar
    30    19    20   ar
    31    19    21    1
    32    21    22    1
    33    21    38    1
    34    22    27   ar
    35    22    23   ar
    36    23    24   ar
    37    23    39    1
    38    24    25   ar
    39    24    40    1
    40    25    26   ar
    41    25    41    1
    42    26    27   ar
    43    26    28    1
    44    27    42    1
    45    28    29    1
    46    29    43    1
    47    29    44    1
    48    29    45    1
@<TRIPOS>MOLECULE
ZINC03815240
 63 66 0 0 0
SMALL
USER_CHARGES

@<TRIPOS>ATOM
      1 C1         17.7444    2.5339   10.7111 C.3     1  <0>1       -0.0245
      2 C2         16.3924    3.1686   10.3788 C.3     1  <0>1       -0.0347
      3 C3         15.2962    1.0097   10.4008 C.3     1  <0>1       -0.0347
      4 C4         14.8320    1.0755    8.9445 C.3     1  <0>1       -0.0245
      5 C5         15.4350    2.3179   12.4336 C.3     1  <0>1        0.0031
      6 C6         15.2021    3.7165   13.0085 C.3     1  <0>1        0.1291
      7 O1         13.8552    4.1188   12.7520 O.3     1  <0>1       -0.4867
      8 C7         13.4815    5.3468   13.2010 C.ar    1  <0>1        0.1209
      9 C8         12.1881    5.7996   12.9856 C.ar    1  <0>1       -0.0182
     10 C9         11.8080    7.0468   13.4404 C.ar    1  <0>1       -0.0370
     11 C10        12.7210    7.8477   14.1139 C.ar    1  <0>1        0.0338
     12 C11        14.0154    7.3935   14.3294 C.ar    1  <0>1       -0.0370
     13 C12        14.3939    6.1462   13.8736 C.ar    1  <0>1       -0.0182
     14 N1         12.3366    9.1127   14.5749 N.pl3   1  <0>1       -0.2836
     15 C13        11.0469    9.3217   15.0240 C.ar    1  <0>1        0.2214
     16 N2         10.2211    8.2838   15.1044 N.ar    1  <0>1       -0.2219
     17 C14         8.9795    8.4297   15.5269 C.ar    1  <0>1        0.0418
     18 C15         8.5412    9.7115   15.8936 C.ar    1  <0>1        0.0365
     19 C16         7.2229    9.9309   16.3541 C.ar    1  <0>1       -0.0366
     20 C17         6.8433   11.2000   16.7003 C.ar    1  <0>1        0.0502
     21 C18         7.8083   12.2955   16.5856 C.ar    1  <0>1        0.2604
     22 O2          7.4792   13.4277   16.8919 O.2     1  <0>1       -0.2670
     23 N3          9.0583   12.0575   16.1437 N.ar    1  <0>1       -0.2953
     24 C19         9.4475   10.7890   15.7946 C.ar    1  <0>1        0.1482
     25 N4         10.6808   10.5479   15.3636 N.ar    1  <0>1       -0.1961
     26 C20        10.0119   13.1642   16.0352 C.3     1  <0>1        0.0167
     27 C21         5.4685   11.4626   17.1860 C.ar    1  <0>1        0.0239
     28 C22         4.4574   11.7930   16.2829 C.ar    1  <0>1        0.0502
     29 C23         3.1769   12.0324   16.7419 C.ar    1  <0>1       -0.0427
     30 C24         2.8979   11.9548   18.0945 C.ar    1  <0>1       -0.0590
     31 C25         3.8969   11.6330   18.9956 C.ar    1  <0>1       -0.0427
     32 C26         5.1805   11.3865   18.5493 C.ar    1  <0>1        0.0502
     33 Cl1         6.4329   10.9833   19.6819 Cl      1  <0>1       -0.0829
     34 Cl2         4.8069   11.8975   14.5857 Cl      1  <0>1       -0.0829
     35 H1         18.5444    3.1397   10.2856 H       1  <0>1        0.0281
     36 H2         17.8648    2.4810   11.7930 H       1  <0>1        0.0281
     37 H3         17.7870    1.5290   10.2911 H       1  <0>1        0.0281
     38 H4         16.2651    3.2071    9.2969 H       1  <0>1        0.0812
     39 H5         16.3558    4.1793   10.7851 H       1  <0>1        0.0812
     40 H6         16.2984    0.5834   10.4440 H       1  <0>1        0.0812
     41 H7         14.6106    0.3847   10.9729 H       1  <0>1        0.0812
     42 H8         14.8412    0.0738    8.5147 H       1  <0>1        0.0281
     43 H9         13.8204    1.4792    8.9033 H       1  <0>1        0.0281
     44 H10        15.5038    1.7201    8.3777 H       1  <0>1        0.0281
     45 H11        16.4331    1.9747   12.7058 H       1  <0>1        0.0848
     46 H12        14.6917    1.6306   12.8377 H       1  <0>1        0.0848
     47 H13        15.8877    4.4214   12.5382 H       1  <0>1        0.0751
     48 H14        15.3782    3.7012   14.0841 H       1  <0>1        0.0751
     49 H15        11.4783    5.1766   12.4618 H       1  <0>1        0.0655
     50 H16        10.8024    7.4011   13.2684 H       1  <0>1        0.0637
     51 H17        14.7259    8.0156   14.8535 H       1  <0>1        0.0637
     52 H18        15.4007    5.7929   14.0412 H       1  <0>1        0.0655
     53 H19        12.9757    9.8423   14.5791 H       1  <0>1        0.1550
     54 H20         8.3149    7.5808   15.5895 H       1  <0>1        0.0838
     55 H21         6.5256    9.1098   16.4313 H       1  <0>1        0.0633
     56 H22         9.9401   13.6099   15.0430 H       1  <0>1        0.0457
     57 H23         9.7822   13.9171   16.7891 H       1  <0>1        0.0457
     58 H24        11.0233   12.7892   16.1927 H       1  <0>1        0.0457
     59 H25         2.3925   12.2841   16.0435 H       1  <0>1        0.0632
     60 H26         1.8959   12.1466   18.4487 H       1  <0>1        0.0618
     61 H27         3.6727   11.5747   20.0505 H       1  <0>1        0.0632
     62 N5         15.2902    2.3765   10.9639 N.4     1  <0>1        0.2372
     63 H28        14.3970    2.8277   10.7344 H       1  <0>1        0.2034
@<TRIPOS>BOND
     1     1     2    1
     2     1    35    1
     3     1    36    1
     4     1    37    1
     5     2    38    1
     6     2    39    1
     7     2    62    1
     8     3     4    1
     9     3    40    1
    10     3    41    1
    11     3    62    1
    12     4    42    1
    13     4    43    1
    14     4    44    1
    15     5     6    1
    16     5    45    1
    17     5    46    1
    18     5    62    1
    19     6     7    1
    20     6    47    1
    21     6    48    1
    22     7     8    1
    23     8    13   ar
    24     8     9   ar
    25     9    10   ar
    26     9    49    1
    27    10    11   ar
    28    10    50    1
    29    11    12   ar
    30    11    14    1
    31    12    13   ar
    32    12    51    1
    33    13    52    1
    34    14    15    1
    35    14    53    1
    36    15    25   ar
    37    15    16   ar
    38    16    17   ar
    39    17    18   ar
    40    17    54    1
    41    18    24   ar
    42    18    19   ar
    43    19    20   ar
    44    19    55    1
    45    20    21   ar
    46    20    27    1
    47    21    22    2
    48    21    23   ar
    49    23    24   ar
    50    23    26    1
    51    24    25   ar
    52    26    56    1
    53    26    57    1
    54    26    58    1
    55    27    32   ar
    56    27    28   ar
    57    28    29   ar
    58    28    34    1
    59    29    30   ar
    60    29    59    1
    61    30    31   ar
    62    30    60    1
    63    31    32   ar
    64    31    61    1
    65    32    33    1
    66    62    63    1
@<TRIPOS>MOLECULE
ZINC03815261
 53 56 0 0 0
SMALL
USER_CHARGES

@<TRIPOS>ATOM
      1 C1         12.4985   10.3375   13.8654 C.3     1  <0>1        0.0167
      2 N1         11.8436    9.4302   14.8110 N.ar    1  <0>1       -0.2953
      3 C2         10.8374    9.8999   15.6169 C.ar    1  <0>1        0.1482
      4 C3         10.1927    9.0375   16.5300 C.ar    1  <0>1        0.0365
      5 C4         10.5867    7.6836   16.6292 C.ar    1  <0>1       -0.0366
      6 C5         11.5952    7.2252   15.8249 C.ar    1  <0>1        0.0502
      7 C6         12.2394    8.1448   14.8845 C.ar    1  <0>1        0.2604
      8 O1         13.1373    7.7451   14.1648 O.2     1  <0>1       -0.2670
      9 C7         12.0315    5.8116   15.9053 C.ar    1  <0>1        0.0239
     10 C8         13.0503    5.4416   16.7841 C.ar    1  <0>1        0.0502
     11 C9         13.4487    4.1212   16.8581 C.ar    1  <0>1       -0.0427
     12 C10        12.8476    3.1683   16.0554 C.ar    1  <0>1       -0.0590
     13 C11        11.8407    3.5294   15.1784 C.ar    1  <0>1       -0.0427
     14 C12        11.4293    4.8454   15.0985 C.ar    1  <0>1        0.0502
     15 Cl1        10.1663    5.2966   13.9963 Cl      1  <0>1       -0.0829
     16 Cl2        13.8114    6.6373   17.7866 Cl      1  <0>1       -0.0829
     17 C13         9.1648    9.5563   17.3316 C.ar    1  <0>1        0.0418
     18 N2          8.8388   10.8280   17.1962 N.ar    1  <0>1       -0.2219
     19 C14         9.4642   11.6091   16.3225 C.ar    1  <0>1        0.2214
     20 N3         10.4400   11.1652   15.5451 N.ar    1  <0>1       -0.1961
     21 N4          9.0830   12.9334   16.2216 N.pl3   1  <0>1       -0.2836
     22 C15         7.9817   13.4009   16.9447 C.ar    1  <0>1        0.0336
     23 C16         6.8931   12.5682   17.1707 C.ar    1  <0>1       -0.0402
     24 C17         5.8095   13.0312   17.8909 C.ar    1  <0>1       -0.0568
     25 C18         5.8021   14.3260   18.3763 C.ar    1  <0>1       -0.0472
     26 C19         6.8818   15.1594   18.1483 C.ar    1  <0>1       -0.0568
     27 C20         7.9712   14.7008   17.4342 C.ar    1  <0>1       -0.0402
     28 C21         4.6150   14.8299   19.1560 C.3     1  <0>1       -0.0272
     29 C22         3.6025   15.4565   18.1952 C.3     1  <0>1       -0.0390
     30 C23         2.3972   15.9680   18.9868 C.3     1  <0>1        0.0451
     31 C24         1.4000   16.5853   18.0405 C.2     1  <0>1        0.3047
     32 O2          1.6297   16.6131   16.8546 O.2     1  <0>1       -0.2510
     33 H1         13.2700    9.7964   13.3176 H       1  <0>1        0.0457
     34 H2         12.9527   11.1648   14.4108 H       1  <0>1        0.0457
     35 H3         11.7601   10.7264   13.1643 H       1  <0>1        0.0457
     36 H4         10.0992    7.0208   17.3288 H       1  <0>1        0.0633
     37 H5         14.2341    3.8327   17.5410 H       1  <0>1        0.0632
     38 H6         13.1661    2.1380   16.1136 H       1  <0>1        0.0618
     39 H7         11.3755    2.7805   14.5544 H       1  <0>1        0.0632
     40 H8          8.6514    8.9283   18.0447 H       1  <0>1        0.0838
     41 H9          9.5795   13.5387   15.6488 H       1  <0>1        0.1550
     42 H10         6.8962   11.5584   16.7879 H       1  <0>1        0.0636
     43 H11         4.9647   12.3827   18.0711 H       1  <0>1        0.0621
     44 H12         6.8731   16.1699   18.5294 H       1  <0>1        0.0621
     45 H13         8.8144   15.3520   17.2567 H       1  <0>1        0.0636
     46 H14         4.1480   13.9987   19.6846 H       1  <0>1        0.0313
     47 H15         4.9445   15.5790   19.8759 H       1  <0>1        0.0313
     48 H16         4.0694   16.2877   17.6667 H       1  <0>1        0.0274
     49 H17         3.2730   14.7073   17.4754 H       1  <0>1        0.0274
     50 H18         1.9303   15.1369   19.5154 H       1  <0>1        0.0378
     51 H19         2.7268   16.7172   19.7067 H       1  <0>1        0.0378
     52 O3          0.2565   17.1040   18.5150 O.3     1  <0>1       -0.4806
     53 H           0.0784   17.0824   19.4347 H       1  <0>1        0.2951
@<TRIPOS>BOND
     1     1     2    1
     2     1    33    1
     3     1    34    1
     4     1    35    1
     5     2     7   ar
     6     2     3   ar
     7     3    20   ar
     8     3     4   ar
     9     4     5   ar
    10     4    17   ar
    11     5     6   ar
    12     5    36    1
    13     6     7   ar
    14     6     9    1
    15     7     8    2
    16     9    14   ar
    17     9    10   ar
    18    10    11   ar
    19    10    16    1
    20    11    12   ar
    21    11    37    1
    22    12    13   ar
    23    12    38    1
    24    13    14   ar
    25    13    39    1
    26    14    15    1
    27    17    18   ar
    28    17    40    1
    29    18    19   ar
    30    19    20   ar
    31    19    21    1
    32    21    22    1
    33    21    41    1
    34    22    27   ar
    35    22    23   ar
    36    23    24   ar
    37    23    42    1
    38    24    25   ar
    39    24    43    1
    40    25    26   ar
    41    25    28    1
    42    26    27   ar
    43    26    44    1
    44    27    45    1
    45    28    29    1
    46    28    46    1
    47    28    47    1
    48    29    30    1
    49    29    48    1
    50    29    49    1
    51    30    31    1
    52    30    50    1
    53    30    51    1
    54    31    32    2
    55    31    52    1
    56    52    53    1
@<TRIPOS>MOLECULE
ZINC03815288
 42 45 0 0 0
SMALL
USER_CHARGES

@<TRIPOS>ATOM
      1 C1         14.8942    6.1677   12.2225 C.3     1  <0>1        0.0167
      2 N1         13.8780    6.6005   13.1850 N.ar    1  <0>1       -0.2953
      3 C2         13.4805    5.7469   14.1830 C.ar    1  <0>1        0.1482
      4 C3         12.5025    6.1484   15.1184 C.ar    1  <0>1        0.0365
      5 C4         11.9240    7.4355   15.0347 C.ar    1  <0>1       -0.0366
      6 C5         12.3272    8.2806   14.0359 C.ar    1  <0>1        0.0502
      7 C6         13.3437    7.8326   13.0814 C.ar    1  <0>1        0.2604
      8 O1         13.7080    8.5782   12.1896 O.2     1  <0>1       -0.2670
      9 C7         11.7401    9.6360   13.9211 C.ar    1  <0>1        0.0239
     10 C8         10.5994    9.8421   13.1443 C.ar    1  <0>1        0.0502
     11 C9         10.0548   11.1074   13.0446 C.ar    1  <0>1       -0.0427
     12 C10        10.6430   12.1709   13.7055 C.ar    1  <0>1       -0.0590
     13 C11        11.7766   11.9742   14.4734 C.ar    1  <0>1       -0.0427
     14 C12        12.3287   10.7131   14.5849 C.ar    1  <0>1        0.0502
     15 Cl1        13.7521   10.4687   15.5481 Cl      1  <0>1       -0.0829
     16 Cl2         9.8631    8.5100   12.3092 Cl      1  <0>1       -0.0829
     17 C13        12.1240    5.2452   16.1230 C.ar    1  <0>1        0.0418
     18 N2         12.6938    4.0550   16.1498 N.ar    1  <0>1       -0.2219
     19 C14        13.6148    3.7131   15.2555 C.ar    1  <0>1        0.2214
     20 N3         14.0043    4.5309   14.2896 N.ar    1  <0>1       -0.1961
     21 N4         14.1830    2.4559   15.3326 N.pl3   1  <0>1       -0.2835
     22 C15        13.8786    1.6160   16.4078 C.ar    1  <0>1        0.0370
     23 C16        13.8164    0.2404   16.2203 C.ar    1  <0>1       -0.0402
     24 C17        13.5147   -0.5892   17.2824 C.ar    1  <0>1       -0.0566
     25 C18        13.2743   -0.0543   18.5340 C.ar    1  <0>1       -0.0201
     26 C19        13.3302    1.3190   18.7262 C.ar    1  <0>1        0.1186
     27 C20        13.6375    2.1547   17.6639 C.ar    1  <0>1        0.0011
     28 O2         13.0886    1.8437   19.9563 O.3     1  <0>1       -0.5067
     29 H1         14.4087    5.6887   11.3723 H       1  <0>1        0.0457
     30 H2         15.4600    7.0331   11.8777 H       1  <0>1        0.0457
     31 H3         15.5699    5.4592   12.7017 H       1  <0>1        0.0457
     32 H4         11.1757    7.7477   15.7481 H       1  <0>1        0.0633
     33 H5          9.1700   11.2678   12.4464 H       1  <0>1        0.0632
     34 H6         10.2153   13.1590   13.6213 H       1  <0>1        0.0618
     35 H7         12.2312   12.8087   14.9865 H       1  <0>1        0.0632
     36 H8         11.3787    5.5163   16.8562 H       1  <0>1        0.0838
     37 H9         14.7933    2.1563   14.6407 H       1  <0>1        0.1550
     38 H10        14.0038   -0.1800   15.2433 H       1  <0>1        0.0636
     39 H11        13.4660   -1.6579   17.1347 H       1  <0>1        0.0619
     40 H12        13.0382   -0.7056   19.3625 H       1  <0>1        0.0654
     41 H13        13.6855    3.2233   17.8126 H       1  <0>1        0.0673
     42 H14        13.8779    1.9333   20.5077 H       1  <0>1        0.2921
@<TRIPOS>BOND
     1     1     2    1
     2     1    29    1
     3     1    30    1
     4     1    31    1
     5     2     7   ar
     6     2     3   ar
     7     3    20   ar
     8     3     4   ar
     9     4     5   ar
    10     4    17   ar
    11     5     6   ar
    12     5    32    1
    13     6     7   ar
    14     6     9    1
    15     7     8    2
    16     9    14   ar
    17     9    10   ar
    18    10    11   ar
    19    10    16    1
    20    11    12   ar
    21    11    33    1
    22    12    13   ar
    23    12    34    1
    24    13    14   ar
    25    13    35    1
    26    14    15    1
    27    17    18   ar
    28    17    36    1
    29    18    19   ar
    30    19    20   ar
    31    19    21    1
    32    21    22    1
    33    21    37    1
    34    22    27   ar
    35    22    23   ar
    36    23    24   ar
    37    23    38    1
    38    24    25   ar
    39    24    39    1
    40    25    26   ar
    41    25    40    1
    42    26    27   ar
    43    26    28    1
    44    27    41    1
    45    28    42    1
@<TRIPOS>MOLECULE
ZINC03815289
 73 76 0 0 0
SMALL
USER_CHARGES

@<TRIPOS>ATOM
      1 C1          7.4904   11.7904   20.4776 C.3     1  <0>1       -0.0442
      2 C2          6.4358   12.1782   19.4393 C.3     1  <0>1        0.0276
      3 C3          5.4038   13.1066   20.0828 C.3     1  <0>1       -0.0442
      4 C4          5.7375   10.9174   18.9259 C.3     1  <0>1       -0.0442
      5 N1          7.0827   12.8681   18.3204 N.am    1  <0>1       -0.2944
      6 C5          8.0330   12.2399   17.6002 C.2     1  <0>1        0.3054
      7 O1          8.3535   11.1008   17.8791 O.2     1  <0>1       -0.2525
      8 N2          8.6281   12.8745   16.5709 N.am    1  <0>1       -0.2536
      9 C6          9.6064   12.2279   15.8295 C.ar    1  <0>1        0.1363
     10 C7         10.2194   12.9070   14.7550 C.ar    1  <0>1        0.0258
     11 C8         11.1926   12.2624   14.0080 C.ar    1  <0>1       -0.0385
     12 C9         11.5361   10.9488   14.3676 C.ar    1  <0>1        0.0381
     13 C10        12.5155   10.2202   13.6711 C.ar    1  <0>1        0.0419
     14 N3         12.7812    8.9905   14.0629 N.ar    1  <0>1       -0.2222
     15 C11        12.1443    8.4379   15.0932 C.ar    1  <0>1        0.2171
     16 N4         11.2169    9.0748   15.7826 N.ar    1  <0>1       -0.1947
     17 C12        10.8765   10.3293   15.4613 C.ar    1  <0>1        0.1668
     18 N5          9.9421   10.9935   16.1440 N.ar    1  <0>1       -0.2116
     19 N6         12.4677    7.1440   15.4552 N.pl3   1  <0>1       -0.3132
     20 C13        13.4927    6.4092   14.7098 C.3     1  <0>1        0.0166
     21 C14        13.6564    5.0115   15.3105 C.3     1  <0>1        0.0031
     22 C15        14.7269    4.2442   14.5320 C.3     1  <0>1       -0.0300
     23 C16        15.4316    2.9751   16.4705 C.3     1  <0>1        0.0094
     24 C17        15.5052    1.5662   17.0639 C.3     1  <0>1        0.0092
     25 C18        15.7986    0.6467   14.8442 C.3     1  <0>1        0.0092
     26 C19        15.7249    2.0556   14.2508 C.3     1  <0>1        0.0094
     27 C20        16.5032   -0.6223   16.7827 C.3     1  <0>1       -0.0427
     28 C21         9.8212   14.2962   14.4241 C.ar    1  <0>1        0.0220
     29 C22        10.4833   15.3736   15.0128 C.ar    1  <0>1        0.0502
     30 C23        10.1036   16.6656   14.7048 C.ar    1  <0>1       -0.0427
     31 C24         9.0733   16.8920   13.8102 C.ar    1  <0>1       -0.0590
     32 C25         8.4163   15.8281   13.2190 C.ar    1  <0>1       -0.0427
     33 C26         8.7865   14.5314   13.5187 C.ar    1  <0>1        0.0502
     34 Cl1         7.9608   13.1973   12.7756 Cl      1  <0>1       -0.0829
     35 Cl2        11.7763   15.0914   16.1362 Cl      1  <0>1       -0.0829
     36 H1          7.9879   12.6886   20.8433 H       1  <0>1        0.0250
     37 H2          7.0091   11.2771   21.3101 H       1  <0>1        0.0250
     38 H3          8.2256   11.1290   20.0192 H       1  <0>1        0.0250
     39 H4          4.6524   13.3829   19.3431 H       1  <0>1        0.0250
     40 H5          4.9225   12.5934   20.9153 H       1  <0>1        0.0250
     41 H6          5.9013   14.0049   20.4485 H       1  <0>1        0.0250
     42 H7          6.4727   10.2560   18.4675 H       1  <0>1        0.0250
     43 H8          5.2562   10.4041   19.7584 H       1  <0>1        0.0250
     44 H9          4.9862   11.1938   18.1862 H       1  <0>1        0.0250
     45 H10         6.8269   13.7769   18.0979 H       1  <0>1        0.1508
     46 H11         8.3724   13.7834   16.3483 H       1  <0>1        0.1578
     47 H12        11.6750   12.7565   13.1777 H       1  <0>1        0.0632
     48 H13        13.0387   10.6583   12.8341 H       1  <0>1        0.0838
     49 H14        12.0158    6.7223   16.2029 H       1  <0>1        0.1489
     50 H15        13.1911    6.3231   13.6659 H       1  <0>1        0.0464
     51 H16        14.4402    6.9443   14.7713 H       1  <0>1        0.0464
     52 H17        13.9580    5.0978   16.3543 H       1  <0>1        0.0332
     53 H18        12.7088    4.4764   15.2491 H       1  <0>1        0.0332
     54 H19        14.4253    4.1580   13.4881 H       1  <0>1        0.0815
     55 H20        15.6745    4.7794   14.5934 H       1  <0>1        0.0815
     56 H21        16.4311    3.4087   16.4380 H       1  <0>1        0.0868
     57 H22        14.7850    3.5970   17.0895 H       1  <0>1        0.0868
     58 H23        14.5024    1.1431   17.1216 H       1  <0>1        0.0868
     59 H24        15.9378    1.6143   18.0633 H       1  <0>1        0.0868
     60 H25        14.7991    0.2131   14.8767 H       1  <0>1        0.0868
     61 H26        16.4449    0.0247   14.2249 H       1  <0>1        0.0868
     62 H27        15.2922    2.0071   13.2515 H       1  <0>1        0.0868
     63 H28        16.7277    2.4788   14.1931 H       1  <0>1        0.0868
     64 H29        17.1838   -1.2066   16.1633 H       1  <0>1        0.0778
     65 H30        16.9099   -0.5393   17.7906 H       1  <0>1        0.0778
     66 H31        15.5326   -1.1168   16.8222 H       1  <0>1        0.0778
     67 H32        10.6126   17.5005   15.1631 H       1  <0>1        0.0632
     68 H33         8.7803   17.9040   13.5726 H       1  <0>1        0.0618
     69 H34         7.6126   16.0114   12.5214 H       1  <0>1        0.0632
     70 N7         14.8591    2.8900   15.1106 N.4     1  <0>1        0.2427
     71 H35        13.9290    2.4588   15.1663 H       1  <0>1        0.2038
     72 N8         16.3710    0.7319   16.2044 N.4     1  <0>1        0.2405
     73 H36        17.3011    1.1632   16.1487 H       1  <0>1        0.2035
@<TRIPOS>BOND
     1     1     2    1
     2     1    36    1
     3     1    37    1
     4     1    38    1
     5     2     3    1
     6     2     4    1
     7     2     5    1
     8     3    39    1
     9     3    40    1
    10     3    41    1
    11     4    42    1
    12     4    43    1
    13     4    44    1
    14     5     6   am
    15     5    45    1
    16     6     7    2
    17     6     8   am
    18     8     9    1
    19     8    46    1
    20     9    18   ar
    21     9    10   ar
    22    10    11   ar
    23    10    28    1
    24    11    12   ar
    25    11    47    1
    26    12    17   ar
    27    12    13   ar
    28    13    14   ar
    29    13    48    1
    30    14    15   ar
    31    15    16   ar
    32    15    19    1
    33    16    17   ar
    34    17    18   ar
    35    19    20    1
    36    19    49    1
    37    20    21    1
    38    20    50    1
    39    20    51    1
    40    21    22    1
    41    21    52    1
    42    21    53    1
    43    22    54    1
    44    22    55    1
    45    22    70    1
    46    23    24    1
    47    23    56    1
    48    23    57    1
    49    23    70    1
    50    24    58    1
    51    24    59    1
    52    24    72    1
    53    25    26    1
    54    25    60    1
    55    25    61    1
    56    25    72    1
    57    26    62    1
    58    26    63    1
    59    26    70    1
    60    27    64    1
    61    27    65    1
    62    27    66    1
    63    27    72    1
    64    28    33   ar
    65    28    29   ar
    66    29    30   ar
    67    29    35    1
    68    30    31   ar
    69    30    67    1
    70    31    32   ar
    71    31    68    1
    72    32    33   ar
    73    32    69    1
    74    33    34    1
    75    70    71    1
    76    72    73    1
@<TRIPOS>MOLECULE
ZINC03815299
 44 47 0 0 0
SMALL
USER_CHARGES

@<TRIPOS>ATOM
      1 C1         11.4258    9.4827   13.6316 C.3     1  <0>1        0.0167
      2 N1         11.9921    9.4778   14.9827 N.ar    1  <0>1       -0.2953
      3 C2         11.4729   10.3128   15.9397 C.ar    1  <0>1        0.1482
      4 C3         12.0040   10.3168   17.2478 C.ar    1  <0>1        0.0365
      5 C4         13.0833    9.4666   17.5800 C.ar    1  <0>1       -0.0366
      6 C5         13.5981    8.6406   16.6171 C.ar    1  <0>1        0.0502
      7 C6         13.0207    8.6575   15.2714 C.ar    1  <0>1        0.2604
      8 O1         13.4728    7.9258   14.4088 O.2     1  <0>1       -0.2670
      9 C7         14.7297    7.7380   16.9337 C.ar    1  <0>1        0.0239
     10 C8         16.0436    8.1722   16.7547 C.ar    1  <0>1        0.0502
     11 C9         17.0939    7.3271   17.0553 C.ar    1  <0>1       -0.0427
     12 C10        16.8453    6.0498   17.5243 C.ar    1  <0>1       -0.0590
     13 C11        15.5451    5.6115   17.6995 C.ar    1  <0>1       -0.0427
     14 C12        14.4858    6.4481   17.4068 C.ar    1  <0>1        0.0502
     15 Cl1        12.8547    5.8958   17.6263 Cl      1  <0>1       -0.0829
     16 Cl2        16.3576    9.7728   16.1604 Cl      1  <0>1       -0.0829
     17 C13        11.4407   11.1819   18.1979 C.ar    1  <0>1        0.0418
     18 N2         10.4345   11.9535   17.8318 N.ar    1  <0>1       -0.2219
     19 C14         9.9574   11.9196   16.5924 C.ar    1  <0>1        0.2214
     20 N3         10.4562   11.1208   15.6614 N.ar    1  <0>1       -0.1961
     21 N4          8.9025   12.7487   16.2625 N.pl3   1  <0>1       -0.2836
     22 C15         8.2813   13.5174   17.2517 C.ar    1  <0>1        0.0344
     23 C16         8.1614   13.0208   18.5448 C.ar    1  <0>1       -0.0404
     24 C17         7.5527   13.7784   19.5274 C.ar    1  <0>1       -0.0592
     25 C18         7.0503   15.0289   19.2296 C.ar    1  <0>1       -0.0477
     26 C19         7.1609   15.5349   17.9329 C.ar    1  <0>1        0.0606
     27 C20         7.7803   14.7721   16.9420 C.ar    1  <0>1       -0.0265
     28 C21         6.6236   16.8730   17.6110 C.2     1  <0>1        0.3369
     29 O2          6.7206   17.3109   16.4821 O.2     1  <0>1       -0.2451
     30 H1         11.9623    8.7657   13.0102 H       1  <0>1        0.0457
     31 H2         11.5214   10.4796   13.2013 H       1  <0>1        0.0457
     32 H3         10.3724    9.2065   13.6782 H       1  <0>1        0.0457
     33 H4         13.4953    9.4683   18.5783 H       1  <0>1        0.0633
     34 H5         18.1114    7.6630   16.9204 H       1  <0>1        0.0632
     35 H6         17.6701    5.3916   17.7544 H       1  <0>1        0.0618
     36 H7         15.3578    4.6129   18.0657 H       1  <0>1        0.0632
     37 H8         11.8227   11.2158   19.2076 H       1  <0>1        0.0838
     38 H9          8.5927   12.7976   15.3445 H       1  <0>1        0.1550
     39 H10         8.5485   12.0411   18.7830 H       1  <0>1        0.0636
     40 H11         7.4661   13.3889   20.5311 H       1  <0>1        0.0618
     41 H12         6.5714   15.6158   19.9992 H       1  <0>1        0.0626
     42 H13         7.8685   15.1579   15.9371 H       1  <0>1        0.0644
     43 O3          6.0262   17.6074   18.5693 O.3     1  <0>1       -0.4771
     44 H           5.9514   17.2696   19.4401 H       1  <0>1        0.2954
@<TRIPOS>BOND
     1     1     2    1
     2     1    30    1
     3     1    31    1
     4     1    32    1
     5     2     7   ar
     6     2     3   ar
     7     3    20   ar
     8     3     4   ar
     9     4     5   ar
    10     4    17   ar
    11     5     6   ar
    12     5    33    1
    13     6     7   ar
    14     6     9    1
    15     7     8    2
    16     9    14   ar
    17     9    10   ar
    18    10    11   ar
    19    10    16    1
    20    11    12   ar
    21    11    34    1
    22    12    13   ar
    23    12    35    1
    24    13    14   ar
    25    13    36    1
    26    14    15    1
    27    17    18   ar
    28    17    37    1
    29    18    19   ar
    30    19    20   ar
    31    19    21    1
    32    21    22    1
    33    21    38    1
    34    22    27   ar
    35    22    23   ar
    36    23    24   ar
    37    23    39    1
    38    24    25   ar
    39    24    40    1
    40    25    26   ar
    41    25    41    1
    42    26    27   ar
    43    26    28    1
    44    27    42    1
    45    28    29    2
    46    28    43    1
    47    43    44    1
@<TRIPOS>MOLECULE
ZINC03815302
 44 47 0 0 0
SMALL
USER_CHARGES

@<TRIPOS>ATOM
      1 C1         11.1993   10.0565   12.9290 C.3     1  <0>1       -0.0469
      2 C2         11.9828   10.3243   14.2156 C.3     1  <0>1        0.0252
      3 N1         11.3274    9.6461   15.3366 N.ar    1  <0>1       -0.2925
      4 C3         10.3659   10.3049   16.0606 C.ar    1  <0>1        0.1485
      5 C4          9.7213    9.6640   17.1407 C.ar    1  <0>1        0.0365
      6 C5         10.0692    8.3398   17.4924 C.ar    1  <0>1       -0.0366
      7 C6         11.0335    7.6923   16.7676 C.ar    1  <0>1        0.0502
      8 C7         11.6787    8.3840   15.6496 C.ar    1  <0>1        0.2607
      9 O1         12.5373    7.8151   14.9993 O.2     1  <0>1       -0.2670
     10 C8         11.4209    6.3042   17.1113 C.ar    1  <0>1        0.0239
     11 C9         12.4543    6.0696   18.0192 C.ar    1  <0>1        0.0502
     12 C10        12.8064    4.7732   18.3402 C.ar    1  <0>1       -0.0427
     13 C11        12.1451    3.7086   17.7547 C.ar    1  <0>1       -0.0590
     14 C12        11.1239    3.9342   16.8493 C.ar    1  <0>1       -0.0427
     15 C13        10.7578    5.2258   16.5244 C.ar    1  <0>1        0.0502
     16 Cl1         9.4760    5.5069   15.3879 Cl      1  <0>1       -0.0829
     17 Cl2        13.2907    7.4042   18.7491 Cl      1  <0>1       -0.0829
     18 C14         8.7398   10.3710   17.8515 C.ar    1  <0>1        0.0418
     19 N2          8.4555   11.6049   17.4787 N.ar    1  <0>1       -0.2219
     20 C15         9.0795   12.1746   16.4535 C.ar    1  <0>1        0.2214
     21 N3         10.0123   11.5478   15.7531 N.ar    1  <0>1       -0.1961
     22 N4          8.7431   13.4688   16.1057 N.pl3   1  <0>1       -0.2836
     23 C16         7.6839   14.1134   16.7514 C.ar    1  <0>1        0.0336
     24 C17         6.5741   13.3867   17.1634 C.ar    1  <0>1       -0.0405
     25 C18         5.5319   14.0257   17.8059 C.ar    1  <0>1       -0.0600
     26 C19         5.5877   15.3892   18.0299 C.ar    1  <0>1       -0.0616
     27 C20         6.6886   16.1166   17.6160 C.ar    1  <0>1       -0.0600
     28 C21         7.7365   15.4830   16.9777 C.ar    1  <0>1       -0.0405
     29 H1         11.1704    8.9839   12.7378 H       1  <0>1        0.0247
     30 H2         11.6870   10.5612   12.0950 H       1  <0>1        0.0247
     31 H3         10.1825   10.4339   13.0376 H       1  <0>1        0.0247
     32 H4         12.9996    9.9471   14.1070 H       1  <0>1        0.0490
     33 H5         12.0118   11.3971   14.4068 H       1  <0>1        0.0490
     34 H6          9.5816    7.8464   18.3201 H       1  <0>1        0.0633
     35 H7         13.6025    4.5903   19.0466 H       1  <0>1        0.0632
     36 H8         12.4275    2.6968   18.0054 H       1  <0>1        0.0618
     37 H9         10.6116    3.0987   16.3956 H       1  <0>1        0.0632
     38 H10         8.2280    9.9155   18.6863 H       1  <0>1        0.0838
     39 H11         9.2418   13.9301   15.4133 H       1  <0>1        0.1550
     40 H12         6.5281   12.3225   16.9851 H       1  <0>1        0.0636
     41 H13         4.6705   13.4606   18.1301 H       1  <0>1        0.0618
     42 H14         4.7695   15.8871   18.5289 H       1  <0>1        0.0618
     43 H15         6.7291   17.1813   17.7925 H       1  <0>1        0.0618
     44 H16         8.5958   16.0516   16.6544 H       1  <0>1        0.0636
@<TRIPOS>BOND
     1     1     2    1
     2     1    29    1
     3     1    30    1
     4     1    31    1
     5     2     3    1
     6     2    32    1
     7     2    33    1
     8     3     8   ar
     9     3     4   ar
    10     4    21   ar
    11     4     5   ar
    12     5     6   ar
    13     5    18   ar
    14     6     7   ar
    15     6    34    1
    16     7     8   ar
    17     7    10    1
    18     8     9    2
    19    10    15   ar
    20    10    11   ar
    21    11    12   ar
    22    11    17    1
    23    12    13   ar
    24    12    35    1
    25    13    14   ar
    26    13    36    1
    27    14    15   ar
    28    14    37    1
    29    15    16    1
    30    18    19   ar
    31    18    38    1
    32    19    20   ar
    33    20    21   ar
    34    20    22    1
    35    22    23    1
    36    22    39    1
    37    23    28   ar
    38    23    24   ar
    39    24    25   ar
    40    24    40    1
    41    25    26   ar
    42    25    41    1
    43    26    27   ar
    44    26    42    1
    45    27    28   ar
    46    27    43    1
    47    28    44    1
@<TRIPOS>MOLECULE
ZINC03815307
 62 65 0 0 0
SMALL
USER_CHARGES

@<TRIPOS>ATOM
      1 C1          9.3309   10.9002   16.8701 C.3     1  <0>1        0.0167
      2 N1          9.9949   11.5796   15.7549 N.ar    1  <0>1       -0.2953
      3 C2         10.9626   10.9220   15.0384 C.ar    1  <0>1        0.1482
      4 C3         11.6119   11.5622   13.9607 C.ar    1  <0>1        0.0365
      5 C4         11.2691   12.8881   13.6100 C.ar    1  <0>1       -0.0366
      6 C5         10.3023   13.5363   14.3307 C.ar    1  <0>1        0.0502
      7 C6          9.6487   12.8435   15.4432 C.ar    1  <0>1        0.2604
      8 O1          8.7875   13.4128   16.0897 O.2     1  <0>1       -0.2670
      9 C7          9.9208   14.9265   13.9885 C.ar    1  <0>1        0.0239
     10 C8         10.5800   16.0014   14.5863 C.ar    1  <0>1        0.0502
     11 C9         10.2229   17.2948   14.2593 C.ar    1  <0>1       -0.0427
     12 C10         9.2074   17.5260   13.3490 C.ar    1  <0>1       -0.0590
     13 C11         8.5464   16.4649   12.7566 C.ar    1  <0>1       -0.0427
     14 C12         8.8970   15.1666   13.0713 C.ar    1  <0>1        0.0502
     15 Cl1         8.0655   13.8364   12.3278 Cl      1  <0>1       -0.0829
     16 Cl2        11.8503   15.7133   15.7340 Cl      1  <0>1       -0.0829
     17 C13        12.5959   10.8547   13.2543 C.ar    1  <0>1        0.0418
     18 N2         12.8787    9.6211   13.6292 N.ar    1  <0>1       -0.2222
     19 C14        12.2433    9.0484   14.6456 C.ar    1  <0>1        0.2170
     20 N3         11.3080    9.6758   15.3419 N.ar    1  <0>1       -0.1964
     21 N4         12.5742    7.7536   14.9922 N.pl3   1  <0>1       -0.3134
     22 C15        13.6053    7.0347   14.2397 C.3     1  <0>1        0.0120
     23 C16        13.7772    5.6310   14.8236 C.3     1  <0>1       -0.0326
     24 C17        14.8541    4.8802   14.0378 C.3     1  <0>1       -0.0111
     25 C18        15.0260    3.4765   14.6217 C.3     1  <0>1       -0.0314
     26 C19        15.6256    2.5053   12.4857 C.3     1  <0>1        0.0094
     27 C20        16.7582    1.8252   11.7129 C.3     1  <0>1        0.0092
     28 C21        17.5545    0.8191   13.7653 C.3     1  <0>1        0.0092
     29 C22        16.4219    1.4992   14.5381 C.3     1  <0>1        0.0094
     30 C23        18.1540   -0.1520   11.6293 C.3     1  <0>1       -0.0427
     31 H1          9.8843   11.0867   17.7906 H       1  <0>1        0.0457
     32 H2          8.3145   11.2801   16.9738 H       1  <0>1        0.0457
     33 H3          9.3000    9.8281   16.6757 H       1  <0>1        0.0457
     34 H4         11.7623   13.3821   12.7859 H       1  <0>1        0.0633
     35 H5         10.7347   18.1276   14.7185 H       1  <0>1        0.0632
     36 H6          8.9291   18.5394   13.0997 H       1  <0>1        0.0618
     37 H7          7.7541   16.6521   12.0469 H       1  <0>1        0.0632
     38 H8         13.1142   11.3112   12.4240 H       1  <0>1        0.0838
     39 H9         12.1240    7.3200   15.7339 H       1  <0>1        0.1489
     40 H10        14.5492    7.5753   14.3092 H       1  <0>1        0.0462
     41 H11        13.3059    6.9592   13.1943 H       1  <0>1        0.0462
     42 H12        14.0766    5.7064   15.8690 H       1  <0>1        0.0282
     43 H13        12.8333    5.0904   14.7541 H       1  <0>1        0.0282
     44 H14        14.5548    4.8046   12.9924 H       1  <0>1        0.0317
     45 H15        15.7981    5.4208   14.1073 H       1  <0>1        0.0317
     46 H16        15.3254    3.5519   15.6670 H       1  <0>1        0.0814
     47 H17        14.0821    2.9358   14.5521 H       1  <0>1        0.0814
     48 H18        14.7492    1.8572   12.4918 H       1  <0>1        0.0868
     49 H19        15.3751    3.4516   12.0062 H       1  <0>1        0.0868
     50 H20        17.6255    2.4847   11.6835 H       1  <0>1        0.0868
     51 H21        16.4281    1.6124   10.6961 H       1  <0>1        0.0868
     52 H22        18.4309    1.4673   13.7591 H       1  <0>1        0.0868
     53 H23        17.8052   -0.1270   14.2450 H       1  <0>1        0.0868
     54 H24        16.7521    1.7120   15.5548 H       1  <0>1        0.0868
     55 H25        15.5546    0.8397   14.5675 H       1  <0>1        0.0868
     56 H26        18.3549   -1.1088   12.1113 H       1  <0>1        0.0778
     57 H27        17.8068   -0.3242   10.6106 H       1  <0>1        0.0778
     58 H28        19.0676    0.4420   11.6062 H       1  <0>1        0.0778
     59 N5         16.0830    2.7712   13.8658 N.4     1  <0>1        0.2427
     60 H29        16.9206    3.3640   13.8313 H       1  <0>1        0.2038
     61 N6         17.0969    0.5533   12.3850 N.4     1  <0>1        0.2405
     62 H30        16.2594   -0.0395   12.4194 H       1  <0>1        0.2035
@<TRIPOS>BOND
     1     1     2    1
     2     1    31    1
     3     1    32    1
     4     1    33    1
     5     2     7   ar
     6     2     3   ar
     7     3    20   ar
     8     3     4   ar
     9     4     5   ar
    10     4    17   ar
    11     5     6   ar
    12     5    34    1
    13     6     7   ar
    14     6     9    1
    15     7     8    2
    16     9    14   ar
    17     9    10   ar
    18    10    11   ar
    19    10    16    1
    20    11    12   ar
    21    11    35    1
    22    12    13   ar
    23    12    36    1
    24    13    14   ar
    25    13    37    1
    26    14    15    1
    27    17    18   ar
    28    17    38    1
    29    18    19   ar
    30    19    20   ar
    31    19    21    1
    32    21    22    1
    33    21    39    1
    34    22    23    1
    35    22    40    1
    36    22    41    1
    37    23    24    1
    38    23    42    1
    39    23    43    1
    40    24    25    1
    41    24    44    1
    42    24    45    1
    43    25    46    1
    44    25    47    1
    45    25    59    1
    46    26    27    1
    47    26    48    1
    48    26    49    1
    49    26    59    1
    50    27    50    1
    51    27    51    1
    52    27    61    1
    53    28    29    1
    54    28    52    1
    55    28    53    1
    56    28    61    1
    57    29    54    1
    58    29    55    1
    59    29    59    1
    60    30    56    1
    61    30    57    1
    62    30    58    1
    63    30    61    1
    64    59    60    1
    65    61    62    1
@<TRIPOS>MOLECULE
ZINC03815308
 47 50 0 0 0
SMALL
USER_CHARGES

@<TRIPOS>ATOM
      1 C1         12.3306    9.7177   14.0364 C.3     1  <0>1        0.0167
      2 N1         11.7642    9.0215   15.1943 N.ar    1  <0>1       -0.2953
      3 C2         10.8204    9.6478   15.9686 C.ar    1  <0>1        0.1482
      4 C3         10.2648    8.9910   17.0878 C.ar    1  <0>1        0.0365
      5 C4         10.6770    7.6805   17.4206 C.ar    1  <0>1       -0.0366
      6 C5         11.6190    7.0632   16.6420 C.ar    1  <0>1        0.0502
      7 C6         12.1752    7.7729   15.4879 C.ar    1  <0>1        0.2604
      8 O1         13.0135    7.2309   14.7898 O.2     1  <0>1       -0.2670
      9 C7         12.0720    5.6899   16.9645 C.ar    1  <0>1        0.0239
     10 C8         13.1633    5.4928   17.8114 C.ar    1  <0>1        0.0502
     11 C9         13.5781    4.2099   18.1110 C.ar    1  <0>1       -0.0427
     12 C10        12.9199    3.1220   17.5662 C.ar    1  <0>1       -0.0590
     13 C11        11.8404    3.3106   16.7222 C.ar    1  <0>1       -0.0427
     14 C12        11.4127    4.5882   16.4179 C.ar    1  <0>1        0.0502
     15 Cl1        10.0585    4.8227   15.3574 Cl      1  <0>1       -0.0829
     16 Cl2        13.9944    6.8569   18.4914 Cl      1  <0>1       -0.0829
     17 C13         9.3021    9.6666   17.8528 C.ar    1  <0>1        0.0418
     18 N2          8.9550   10.8888   17.4951 N.ar    1  <0>1       -0.2219
     19 C14         9.4994   11.4759   16.4351 C.ar    1  <0>1        0.2214
     20 N3         10.4074   10.8768   15.6801 N.ar    1  <0>1       -0.1961
     21 N4          9.0993   12.7567   16.1049 N.pl3   1  <0>1       -0.2836
     22 C15         8.2261   13.4545   16.9445 C.ar    1  <0>1        0.0336
     23 C16         8.2890   13.2724   18.3202 C.ar    1  <0>1       -0.0402
     24 C17         7.4245   13.9630   19.1467 C.ar    1  <0>1       -0.0563
     25 C18         6.4972   14.8349   18.6062 C.ar    1  <0>1       -0.0367
     26 C19         6.4283   15.0144   17.2368 C.ar    1  <0>1       -0.0563
     27 C20         7.2933   14.3309   16.4050 C.ar    1  <0>1       -0.0402
     28 C21         5.5551   15.5864   19.5112 C.3     1  <0>1        0.0699
     29 C22         6.1813   16.8976   19.9108 C.2     1  <0>1        0.3091
     30 O2          7.2799   17.1917   19.5025 O.2     1  <0>1       -0.2507
     31 H1         13.2149   10.2755   14.3445 H       1  <0>1        0.0457
     32 H2         12.6077    8.9893   13.2743 H       1  <0>1        0.0457
     33 H3         11.5904   10.4062   13.6288 H       1  <0>1        0.0457
     34 H4         10.2552    7.1737   18.2760 H       1  <0>1        0.0633
     35 H5         14.4203    4.0559   18.7693 H       1  <0>1        0.0632
     36 H6         13.2506    2.1210   17.8007 H       1  <0>1        0.0618
     37 H7         11.3311    2.4570   16.2998 H       1  <0>1        0.0632
     38 H8          8.8543    9.1964   18.7159 H       1  <0>1        0.0838
     39 H9          9.4243   13.1715   15.2906 H       1  <0>1        0.1550
     40 H10         9.0127   12.5915   18.7428 H       1  <0>1        0.0636
     41 H11         7.4731   13.8222   20.2164 H       1  <0>1        0.0621
     42 H12         5.7000   15.6927   16.8176 H       1  <0>1        0.0621
     43 H13         7.2421   14.4750   15.3358 H       1  <0>1        0.0636
     44 H14         5.3564   14.9920   20.4031 H       1  <0>1        0.0426
     45 H15         4.6195   15.7759   18.9851 H       1  <0>1        0.0426
     46 O3          5.5165   17.7413   20.7157 O.3     1  <0>1       -0.4804
     47 H           4.6646   17.5132   21.0323 H       1  <0>1        0.2951
@<TRIPOS>BOND
     1     1     2    1
     2     1    31    1
     3     1    32    1
     4     1    33    1
     5     2     7   ar
     6     2     3   ar
     7     3    20   ar
     8     3     4   ar
     9     4     5   ar
    10     4    17   ar
    11     5     6   ar
    12     5    34    1
    13     6     7   ar
    14     6     9    1
    15     7     8    2
    16     9    14   ar
    17     9    10   ar
    18    10    11   ar
    19    10    16    1
    20    11    12   ar
    21    11    35    1
    22    12    13   ar
    23    12    36    1
    24    13    14   ar
    25    13    37    1
    26    14    15    1
    27    17    18   ar
    28    17    38    1
    29    18    19   ar
    30    19    20   ar
    31    19    21    1
    32    21    22    1
    33    21    39    1
    34    22    27   ar
    35    22    23   ar
    36    23    24   ar
    37    23    40    1
    38    24    25   ar
    39    24    41    1
    40    25    26   ar
    41    25    28    1
    42    26    27   ar
    43    26    42    1
    44    27    43    1
    45    28    29    1
    46    28    44    1
    47    28    45    1
    48    29    30    2
    49    29    46    1
    50    46    47    1
@<TRIPOS>MOLECULE
ZINC03815309
 45 48 0 0 0
SMALL
USER_CHARGES

@<TRIPOS>ATOM
      1 C1         11.4258    9.4829   13.6315 C.3     1  <0>1        0.0167
      2 N1         11.9920    9.4778   14.9827 N.ar    1  <0>1       -0.2953
      3 C2         11.4697   10.3094   15.9409 C.ar    1  <0>1        0.1482
      4 C3         12.0037   10.3168   17.2477 C.ar    1  <0>1        0.0365
      5 C4         13.0825    9.4661   17.5802 C.ar    1  <0>1       -0.0366
      6 C5         13.5969    8.6394   16.6175 C.ar    1  <0>1        0.0502
      7 C6         13.0197    8.6565   15.2717 C.ar    1  <0>1        0.2604
      8 O1         13.4710    7.9239   14.4094 O.2     1  <0>1       -0.2670
      9 C7         14.7272    7.7356   16.9345 C.ar    1  <0>1        0.0239
     10 C8         16.0418    8.1682   16.7555 C.ar    1  <0>1        0.0502
     11 C9         17.0910    7.3224   17.0576 C.ar    1  <0>1       -0.0427
     12 C10        16.8410    6.0455   17.5269 C.ar    1  <0>1       -0.0590
     13 C11        15.5401    5.6086   17.7017 C.ar    1  <0>1       -0.0427
     14 C12        14.4819    6.4461   17.4080 C.ar    1  <0>1        0.0502
     15 Cl1        12.8501    5.8955   17.6269 Cl      1  <0>1       -0.0829
     16 Cl2        16.3576    9.7680   16.1602 Cl      1  <0>1       -0.0829
     17 C13        11.4405   11.1817   18.1980 C.ar    1  <0>1        0.0418
     18 N2         10.4344   11.9536   17.8319 N.ar    1  <0>1       -0.2219
     19 C14         9.9574   11.9199   16.5922 C.ar    1  <0>1        0.2214
     20 N3         10.4526   11.1170   15.6627 N.ar    1  <0>1       -0.1961
     21 N4          8.9026   12.7486   16.2625 N.pl3   1  <0>1       -0.2836
     22 C15         8.4313   13.6851   17.1906 C.ar    1  <0>1        0.0338
     23 C16         9.3152   14.2979   18.0690 C.ar    1  <0>1       -0.0370
     24 C17         8.8497   15.2218   18.9838 C.ar    1  <0>1       -0.0182
     25 C18         7.4997   15.5380   19.0251 C.ar    1  <0>1        0.1202
     26 C19         6.6161   14.9262   18.1479 C.ar    1  <0>1       -0.0182
     27 C20         7.0799   14.0018   17.2329 C.ar    1  <0>1       -0.0370
     28 O2          7.0421   16.4479   19.9261 O.3     1  <0>1       -0.4951
     29 C21         5.6403   16.7255   19.9130 C.3     1  <0>1        0.0788
     30 H1         11.9495   10.2186   13.0209 H       1  <0>1        0.0457
     31 H2         11.5392    8.4945   13.1862 H       1  <0>1        0.0457
     32 H3         10.3677    9.7395   13.6819 H       1  <0>1        0.0457
     33 H4         13.4945    9.4675   18.5785 H       1  <0>1        0.0633
     34 H5         18.1089    7.6573   16.9229 H       1  <0>1        0.0632
     35 H6         17.6650    5.3866   17.7577 H       1  <0>1        0.0618
     36 H7         15.3517    4.6103   18.0682 H       1  <0>1        0.0632
     37 H8         11.8219   11.2152   19.2079 H       1  <0>1        0.0838
     38 H9          8.4883   12.6817   15.3879 H       1  <0>1        0.1550
     39 H10        10.3671   14.0555   18.0338 H       1  <0>1        0.0637
     40 H11         9.5369   15.6986   19.6670 H       1  <0>1        0.0655
     41 H12         5.5651   15.1727   18.1810 H       1  <0>1        0.0655
     42 H13         6.3918   13.5254   16.5504 H       1  <0>1        0.0637
     43 H14         5.3559   17.1133   18.9349 H       1  <0>1        0.0660
     44 H15         5.0864   15.8087   20.1154 H       1  <0>1        0.0660
     45 H16         5.4095   17.4660   20.6787 H       1  <0>1        0.0660
@<TRIPOS>BOND
     1     1     2    1
     2     1    30    1
     3     1    31    1
     4     1    32    1
     5     2     7   ar
     6     2     3   ar
     7     3    20   ar
     8     3     4   ar
     9     4     5   ar
    10     4    17   ar
    11     5     6   ar
    12     5    33    1
    13     6     7   ar
    14     6     9    1
    15     7     8    2
    16     9    14   ar
    17     9    10   ar
    18    10    11   ar
    19    10    16    1
    20    11    12   ar
    21    11    34    1
    22    12    13   ar
    23    12    35    1
    24    13    14   ar
    25    13    36    1
    26    14    15    1
    27    17    18   ar
    28    17    37    1
    29    18    19   ar
    30    19    20   ar
    31    19    21    1
    32    21    22    1
    33    21    38    1
    34    22    27   ar
    35    22    23   ar
    36    23    24   ar
    37    23    39    1
    38    24    25   ar
    39    24    40    1
    40    25    26   ar
    41    25    28    1
    42    26    27   ar
    43    26    41    1
    44    27    42    1
    45    28    29    1
    46    29    43    1
    47    29    44    1
    48    29    45    1
@<TRIPOS>MOLECULE
ZINC03815350
 43 46 0 0 0
SMALL
USER_CHARGES

@<TRIPOS>ATOM
      1 C1          9.9406   10.6600   13.1568 C.3     1  <0>1       -0.0469
      2 C2          9.0340   10.0556   14.2309 C.3     1  <0>1        0.0252
      3 N1          9.8136    9.8117   15.4471 N.ar    1  <0>1       -0.2925
      4 C3          9.9079   10.7931   16.4013 C.ar    1  <0>1        0.1485
      5 C4         10.6546   10.5741   17.5793 C.ar    1  <0>1        0.0365
      6 C5         11.3123    9.3398   17.7855 C.ar    1  <0>1       -0.0366
      7 C6         11.2125    8.3666   16.8278 C.ar    1  <0>1        0.0502
      8 C7         10.4299    8.6262   15.6174 C.ar    1  <0>1        0.2607
      9 O1         10.3355    7.7656   14.7605 O.2     1  <0>1       -0.2670
     10 C8         11.8905    7.0625   17.0139 C.ar    1  <0>1        0.0239
     11 C9         13.1947    6.8786   16.5529 C.ar    1  <0>1        0.0502
     12 C10        13.8227    5.6619   16.7339 C.ar    1  <0>1       -0.0427
     13 C11        13.1581    4.6236   17.3613 C.ar    1  <0>1       -0.0590
     14 C12        11.8633    4.7977   17.8159 C.ar    1  <0>1       -0.0427
     15 C13        11.2257    6.0109   17.6460 C.ar    1  <0>1        0.0502
     16 Cl1         9.6006    6.2272   18.2169 Cl      1  <0>1       -0.0829
     17 Cl2        14.0280    8.1781   15.7589 Cl      1  <0>1       -0.0829
     18 C14        10.7253   11.6033   18.5299 C.ar    1  <0>1        0.0418
     19 N2         10.0909   12.7346   18.2846 N.ar    1  <0>1       -0.2219
     20 C15         9.3974   12.9052   17.1646 C.ar    1  <0>1        0.2214
     21 N3          9.2975   11.9619   16.2409 N.ar    1  <0>1       -0.1961
     22 N4          8.7516   14.1100   16.9585 N.pl3   1  <0>1       -0.2835
     23 C16         8.7385   15.0746   17.9642 C.ar    1  <0>1        0.0364
     24 C17         8.7090   14.7059   19.3087 C.ar    1  <0>1       -0.0223
     25 C18         8.7011   15.6912   20.2737 C.ar    1  <0>1        0.0293
     26 N5          8.7113   16.9675   19.9377 N.ar    1  <0>1       -0.2631
     27 C19         8.7345   17.3566   18.6768 C.ar    1  <0>1        0.0293
     28 C20         8.7486   16.4337   17.6521 C.ar    1  <0>1       -0.0223
     29 H1         10.7527    9.9676   12.9351 H       1  <0>1        0.0247
     30 H2          9.3607   10.8414   12.2519 H       1  <0>1        0.0247
     31 H3         10.3542   11.6015   13.5181 H       1  <0>1        0.0247
     32 H4          8.6204    9.1140   13.8696 H       1  <0>1        0.0490
     33 H5          8.2219   10.7479   14.4526 H       1  <0>1        0.0490
     34 H6         11.8851    9.1674   18.6846 H       1  <0>1        0.0633
     35 H7         14.8336    5.5195   16.3812 H       1  <0>1        0.0632
     36 H8         13.6520    3.6727   17.4963 H       1  <0>1        0.0618
     37 H9         11.3500    3.9830   18.3052 H       1  <0>1        0.0632
     38 H10        11.2866   11.4728   19.4433 H       1  <0>1        0.0838
     39 H11         8.3077   14.2839   16.1138 H       1  <0>1        0.1550
     40 H12         8.6963   13.6633   19.5904 H       1  <0>1        0.0651
     41 H13         8.6821   15.4149   21.3177 H       1  <0>1        0.0830
     42 H14         8.7422   18.4114   18.4444 H       1  <0>1        0.0830
     43 H15         8.7669   16.7588   16.6224 H       1  <0>1        0.0651
@<TRIPOS>BOND
     1     1     2    1
     2     1    29    1
     3     1    30    1
     4     1    31    1
     5     2     3    1
     6     2    32    1
     7     2    33    1
     8     3     8   ar
     9     3     4   ar
    10     4    21   ar
    11     4     5   ar
    12     5     6   ar
    13     5    18   ar
    14     6     7   ar
    15     6    34    1
    16     7     8   ar
    17     7    10    1
    18     8     9    2
    19    10    15   ar
    20    10    11   ar
    21    11    12   ar
    22    11    17    1
    23    12    13   ar
    24    12    35    1
    25    13    14   ar
    26    13    36    1
    27    14    15   ar
    28    14    37    1
    29    15    16    1
    30    18    19   ar
    31    18    38    1
    32    19    20   ar
    33    20    21   ar
    34    20    22    1
    35    22    23    1
    36    22    39    1
    37    23    28   ar
    38    23    24   ar
    39    24    25   ar
    40    24    40    1
    41    25    26   ar
    42    25    41    1
    43    26    27   ar
    44    27    28   ar
    45    27    42    1
    46    28    43    1
@<TRIPOS>MOLECULE
ZINC03815354
 40 43 0 0 0
SMALL
USER_CHARGES

@<TRIPOS>ATOM
      1 C1         12.4084    9.7570   14.1034 C.3     1  <0>1        0.0167
      2 N1         11.7642    9.0214   15.1943 N.ar    1  <0>1       -0.2953
      3 C2         10.7830    9.6290   15.9365 C.ar    1  <0>1        0.1482
      4 C3         10.1519    8.9343   16.9909 C.ar    1  <0>1        0.0365
      5 C4         10.5259    7.6043   17.2908 C.ar    1  <0>1       -0.0366
      6 C5         11.5059    7.0063   16.5449 C.ar    1  <0>1        0.0502
      7 C6         12.1408    7.7555   15.4584 C.ar    1  <0>1        0.2604
      8 O1         13.0135    7.2309   14.7898 O.2     1  <0>1       -0.2670
      9 C7         11.9206    5.6137   16.8345 C.ar    1  <0>1        0.0239
     10 C8         12.9555    5.3642   17.7368 C.ar    1  <0>1        0.0502
     11 C9         13.3348    4.0636   18.0053 C.ar    1  <0>1       -0.0427
     12 C10        12.6973    3.0099   17.3751 C.ar    1  <0>1       -0.0590
     13 C11        11.6741    3.2507   16.4761 C.ar    1  <0>1       -0.0427
     14 C12        11.2822    4.5464   16.2019 C.ar    1  <0>1        0.0502
     15 Cl1         9.9985    4.8464   15.0724 Cl      1  <0>1       -0.0829
     16 Cl2        13.7607    6.6853   18.5242 Cl      1  <0>1       -0.0829
     17 C13         9.1539    9.5920   17.7254 C.ar    1  <0>1        0.0418
     18 N2          8.8489   10.8353   17.4043 N.ar    1  <0>1       -0.2219
     19 C14         9.4609   11.4565   16.4019 C.ar    1  <0>1        0.2214
     20 N3         10.4083   10.8774   15.6806 N.ar    1  <0>1       -0.1961
     21 N4          9.0993   12.7566   16.1049 N.pl3   1  <0>1       -0.2823
     22 C15         8.1864   13.4322   16.9206 C.ar    1  <0>1        0.0518
     23 C16         8.1502   13.1905   18.2921 C.ar    1  <0>1       -0.0376
     24 C17         7.2249   13.8804   19.0575 C.ar    1  <0>1       -0.0418
     25 C18         6.3816   14.7874   18.4425 C.ar    1  <0>1        0.0277
     26 N5          6.4446   14.9976   17.1423 N.ar    1  <0>1       -0.2614
     27 C19         7.3063   14.3586   16.3764 C.ar    1  <0>1        0.0487
     28 H1         13.2794   10.2878   14.4878 H       1  <0>1        0.0457
     29 H2         12.7221    9.0570   13.3289 H       1  <0>1        0.0457
     30 H3         11.7032   10.4732   13.6818 H       1  <0>1        0.0457
     31 H4         10.0457    7.0681   18.0959 H       1  <0>1        0.0633
     32 H5         14.1330    3.8687   18.7062 H       1  <0>1        0.0632
     33 H6         13.0002    1.9949   17.5857 H       1  <0>1        0.0618
     34 H7         11.1806    2.4237   15.9871 H       1  <0>1        0.0632
     35 H8          8.6489    9.0931   18.5394 H       1  <0>1        0.0838
     36 H9          9.4788   13.2007   15.3305 H       1  <0>1        0.1551
     37 H10         8.8242   12.4795   18.7466 H       1  <0>1        0.0637
     38 H11         7.1656   13.7152   20.1232 H       1  <0>1        0.0633
     39 H12         5.6610   15.3312   19.0354 H       1  <0>1        0.0829
     40 H13         7.3284   14.5576   15.3151 H       1  <0>1        0.0848
@<TRIPOS>BOND
     1     1     2    1
     2     1    28    1
     3     1    29    1
     4     1    30    1
     5     2     7   ar
     6     2     3   ar
     7     3    20   ar
     8     3     4   ar
     9     4     5   ar
    10     4    17   ar
    11     5     6   ar
    12     5    31    1
    13     6     7   ar
    14     6     9    1
    15     7     8    2
    16     9    14   ar
    17     9    10   ar
    18    10    11   ar
    19    10    16    1
    20    11    12   ar
    21    11    32    1
    22    12    13   ar
    23    12    33    1
    24    13    14   ar
    25    13    34    1
    26    14    15    1
    27    17    18   ar
    28    17    35    1
    29    18    19   ar
    30    19    20   ar
    31    19    21    1
    32    21    22    1
    33    21    36    1
    34    22    27   ar
    35    22    23   ar
    36    23    24   ar
    37    23    37    1
    38    24    25   ar
    39    24    38    1
    40    25    26   ar
    41    25    39    1
    42    26    27   ar
    43    27    40    1
@<TRIPOS>MOLECULE
ZINC03815368
 51 53 0 0 0
SMALL
USER_CHARGES

@<TRIPOS>ATOM
      1 C1         11.6498   11.1831   15.9924 C.3     1  <0>1       -0.0391
      2 C2         11.2984   11.2155   14.5273 C.ar    1  <0>1       -0.0424
      3 C3         10.5934   12.2827   14.0089 C.ar    1  <0>1       -0.0582
      4 C4         10.2648   12.3108   12.6655 C.ar    1  <0>1       -0.0612
      5 C5         10.6452   11.2736   11.8330 C.ar    1  <0>1       -0.0582
      6 C6         11.3558   10.2043   12.3391 C.ar    1  <0>1       -0.0424
      7 C7         11.6897   10.1705   13.6920 C.ar    1  <0>1       -0.0088
      8 C8         12.4531    9.0244   14.2417 C.ar    1  <0>1        0.0235
      9 C9         13.8388    9.0525   14.2609 C.ar    1  <0>1       -0.0386
     10 C10        14.5124    7.9410   14.7924 C.ar    1  <0>1        0.0381
     11 C11        15.9154    7.8818   14.8525 C.ar    1  <0>1        0.0419
     12 N1         16.4777    6.8059   15.3645 N.ar    1  <0>1       -0.2224
     13 C12        15.7463    5.7902   15.8183 C.ar    1  <0>1        0.2145
     14 N2         14.4273    5.7914   15.7870 N.ar    1  <0>1       -0.1949
     15 C13        13.7631    6.8402   15.2852 C.ar    1  <0>1        0.1668
     16 N3         12.4300    6.8645   15.2425 N.ar    1  <0>1       -0.2116
     17 C14        11.7753    7.8958   14.7487 C.ar    1  <0>1        0.1363
     18 N4         10.3883    7.8715   14.7271 N.am    1  <0>1       -0.2536
     19 C15         9.7255    6.8010   15.2079 C.2     1  <0>1        0.3054
     20 O1         10.3431    5.8566   15.6606 O.2     1  <0>1       -0.2525
     21 N5          8.3782    6.7773   15.1870 N.am    1  <0>1       -0.2944
     22 C16         7.6578    5.6137   15.7097 C.3     1  <0>1        0.0276
     23 C17         8.0080    5.4180   17.1862 C.3     1  <0>1       -0.0442
     24 C18         6.1513    5.8410   15.5686 C.3     1  <0>1       -0.0442
     25 C19         8.0615    4.3670   14.9202 C.3     1  <0>1       -0.0442
     26 N6         16.3954    4.6891   16.3434 N.pl3   1  <0>1       -0.3274
     27 C20        11.7704    9.0756   11.4307 C.3     1  <0>1       -0.0391
     28 H1         12.6153   11.6654   16.1453 H       1  <0>1        0.0278
     29 H2         10.8852   11.7123   16.5612 H       1  <0>1        0.0278
     30 H3         11.7030   10.1482   16.3305 H       1  <0>1        0.0278
     31 H4         10.2941   13.0954   14.6542 H       1  <0>1        0.0620
     32 H5          9.7088   13.1456   12.2651 H       1  <0>1        0.0618
     33 H6         10.3859   11.3009   10.7850 H       1  <0>1        0.0620
     34 H7         14.3836    9.9034   13.8795 H       1  <0>1        0.0632
     35 H8         16.5188    8.6999   14.4877 H       1  <0>1        0.0838
     36 H9          9.8956    8.6250   14.3659 H       1  <0>1        0.1578
     37 H10         7.8854    7.5308   14.8258 H       1  <0>1        0.1508
     38 H11         7.7202    6.3063   17.7487 H       1  <0>1        0.0250
     39 H12         7.4719    4.5523   17.5750 H       1  <0>1        0.0250
     40 H13         9.0811    5.2562   17.2867 H       1  <0>1        0.0250
     41 H14         5.9018    5.9804   14.5167 H       1  <0>1        0.0250
     42 H15         5.6153    4.9752   15.9575 H       1  <0>1        0.0250
     43 H16         5.8635    6.7291   16.1311 H       1  <0>1        0.0250
     44 H17         9.1348    4.2051   15.0206 H       1  <0>1        0.0250
     45 H18         7.5255    3.5012   15.3091 H       1  <0>1        0.0250
     46 H19         7.8121    4.5064   13.8683 H       1  <0>1        0.0250
     47 H20        15.8818    3.9379   16.6794 H       1  <0>1        0.1452
     48 H21        17.3647    4.6673   16.3760 H       1  <0>1        0.1452
     49 H22        10.9898    8.3149   11.4168 H       1  <0>1        0.0278
     50 H23        11.9225    9.4585   10.4215 H       1  <0>1        0.0278
     51 H24        12.6987    8.6370   11.7966 H       1  <0>1        0.0278
@<TRIPOS>BOND
     1     1     2    1
     2     1    28    1
     3     1    29    1
     4     1    30    1
     5     2     7   ar
     6     2     3   ar
     7     3     4   ar
     8     3    31    1
     9     4     5   ar
    10     4    32    1
    11     5     6   ar
    12     5    33    1
    13     6     7   ar
    14     6    27    1
    15     7     8    1
    16     8    17   ar
    17     8     9   ar
    18     9    10   ar
    19     9    34    1
    20    10    15   ar
    21    10    11   ar
    22    11    12   ar
    23    11    35    1
    24    12    13   ar
    25    13    14   ar
    26    13    26    1
    27    14    15   ar
    28    15    16   ar
    29    16    17   ar
    30    17    18    1
    31    18    19   am
    32    18    36    1
    33    19    20    2
    34    19    21   am
    35    21    22    1
    36    21    37    1
    37    22    23    1
    38    22    24    1
    39    22    25    1
    40    23    38    1
    41    23    39    1
    42    23    40    1
    43    24    41    1
    44    24    42    1
    45    24    43    1
    46    25    44    1
    47    25    45    1
    48    25    46    1
    49    26    47    1
    50    26    48    1
    51    27    49    1
    52    27    50    1
    53    27    51    1
@<TRIPOS>MOLECULE
ZINC03815379
 75 79 0 0 0
SMALL
USER_CHARGES

@<TRIPOS>ATOM
      1 C1         16.0267   -1.1915   17.6388 C.3     1  <0>1       -0.0427
      2 C2         15.6322   -0.1571   15.4850 C.3     1  <0>1        0.0092
      3 C3         15.7924    1.1416   14.6910 C.3     1  <0>1        0.0094
      4 C4         15.4837    2.4213   16.7223 C.3     1  <0>1        0.0094
      5 C5         15.3236    1.1227   17.5161 C.3     1  <0>1        0.0092
      6 C6         15.0892    3.4558   14.5684 C.3     1  <0>1       -0.0300
      7 C7         14.0859    4.4629   15.1341 C.3     1  <0>1        0.0031
      8 C8         14.1560    5.7608   14.3270 C.3     1  <0>1        0.0166
      9 N1         13.1953    6.7252   14.8686 N.pl3   1  <0>1       -0.3132
     10 C9         13.0778    7.9784   14.2980 C.ar    1  <0>1        0.2171
     11 N2         13.8506    8.2806   13.2569 N.ar    1  <0>1       -0.2222
     12 C10        13.7836    9.4593   12.6717 C.ar    1  <0>1        0.0419
     13 C11        12.8708   10.4045   13.1703 C.ar    1  <0>1        0.0381
     14 C12        12.7403   11.6821   12.6014 C.ar    1  <0>1       -0.0385
     15 C13        11.8147   12.5498   13.1586 C.ar    1  <0>1        0.0258
     16 C14        11.0448   12.1272   14.2633 C.ar    1  <0>1        0.1364
     17 N3         11.1890   10.9250   14.7824 N.ar    1  <0>1       -0.2116
     18 C15        12.0619   10.0490   14.2814 C.ar    1  <0>1        0.1668
     19 N4         12.2042    8.8259   14.8073 N.ar    1  <0>1       -0.1947
     20 N5         10.1195   12.9991   14.8185 N.am    1  <0>1       -0.2534
     21 C16         9.3764   12.6108   15.8737 C.2     1  <0>1        0.3092
     22 O1          9.5170   11.4966   16.3391 O.2     1  <0>1       -0.2521
     23 N6          8.4775   13.4579   16.4131 N.am    1  <0>1       -0.2692
     24 C17         7.7850   13.0971   17.5767 C.ar    1  <0>1        0.0350
     25 C18         8.4052   12.3107   18.5382 C.ar    1  <0>1       -0.0370
     26 C19         7.7224   11.9557   19.6849 C.ar    1  <0>1       -0.0182
     27 C20         6.4172   12.3848   19.8761 C.ar    1  <0>1        0.1202
     28 C21         5.7970   13.1706   18.9158 C.ar    1  <0>1       -0.0182
     29 C22         6.4786   13.5261   17.7687 C.ar    1  <0>1       -0.0370
     30 O2          5.7453   12.0346   21.0052 O.3     1  <0>1       -0.4951
     31 C23         4.4045   12.5114   21.1365 C.3     1  <0>1        0.0788
     32 C24        11.6342   13.9106   12.5986 C.ar    1  <0>1        0.0220
     33 C25        12.3905   14.9754   13.0883 C.ar    1  <0>1        0.0502
     34 C26        12.2215   16.2399   12.5587 C.ar    1  <0>1       -0.0427
     35 C27        11.2969   16.4535   11.5525 C.ar    1  <0>1       -0.0590
     36 C28        10.5397   15.4029   11.0665 C.ar    1  <0>1       -0.0427
     37 C29        10.7034   14.1325   11.5837 C.ar    1  <0>1        0.0502
     38 Cl1         9.7524   12.8152   10.9723 Cl      1  <0>1       -0.0829
     39 Cl2        13.5465   14.7108   14.3562 Cl      1  <0>1       -0.0829
     40 H1         16.6594   -1.9453   17.1703 H       1  <0>1        0.0778
     41 H2         16.3741   -1.0065   18.6553 H       1  <0>1        0.0778
     42 H3         14.9968   -1.5474   17.6660 H       1  <0>1        0.0778
     43 H4         14.5826   -0.4506   15.4940 H       1  <0>1        0.0868
     44 H5         16.2258   -0.9436   15.0190 H       1  <0>1        0.0868
     45 H6         15.4236    0.9951   13.6759 H       1  <0>1        0.0868
     46 H7         16.8456    1.4206   14.6589 H       1  <0>1        0.0868
     47 H8         16.5334    2.7150   16.7132 H       1  <0>1        0.0868
     48 H9         14.8899    3.2078   17.1879 H       1  <0>1        0.0868
     49 H10        14.2703    0.8436   17.5483 H       1  <0>1        0.0868
     50 H11        15.6922    1.2689   18.5315 H       1  <0>1        0.0868
     51 H12        14.8477    3.2488   13.5259 H       1  <0>1        0.0815
     52 H13        16.0954    3.8699   14.6330 H       1  <0>1        0.0815
     53 H14        14.3275    4.6699   16.1767 H       1  <0>1        0.0332
     54 H15        13.0797    4.0488   15.0696 H       1  <0>1        0.0332
     55 H16        13.9144    5.5538   13.2844 H       1  <0>1        0.0464
     56 H17        15.1622    6.1749   14.3915 H       1  <0>1        0.0464
     57 H18        12.6418    6.4841   15.6279 H       1  <0>1        0.1489
     58 H19        14.4157    9.6936   11.8280 H       1  <0>1        0.0838
     59 H20        13.3427   11.9789   11.7556 H       1  <0>1        0.0632
     60 H21        10.0074   13.8882   14.4472 H       1  <0>1        0.1578
     61 H22         8.3099   14.3174   15.9957 H       1  <0>1        0.1564
     62 H23         9.4212   11.9763   18.3893 H       1  <0>1        0.0637
     63 H24         8.2031   11.3404   20.4309 H       1  <0>1        0.0655
     64 H25         4.7808   13.5042   19.0653 H       1  <0>1        0.0655
     65 H26         5.9958   14.1381   17.0213 H       1  <0>1        0.0637
     66 H27         3.9850   12.1609   22.0795 H       1  <0>1        0.0660
     67 H28         4.4033   13.6012   21.1211 H       1  <0>1        0.0660
     68 H29         3.8027   12.1356   20.3090 H       1  <0>1        0.0660
     69 H30        12.8098   17.0643   12.9338 H       1  <0>1        0.0632
     70 H31        11.1652   17.4449   11.1448 H       1  <0>1        0.0618
     71 H32         9.8194   15.5761   10.2806 H       1  <0>1        0.0632
     72 N7         16.1205    0.0634   16.8626 N.4     1  <0>1        0.2405
     73 H33        17.1029    0.3598   16.8251 H       1  <0>1        0.2035
     74 N8         14.9954    2.2009   15.3446 N.4     1  <0>1        0.2427
     75 H34        14.0131    1.9044   15.3820 H       1  <0>1        0.2038
@<TRIPOS>BOND
     1     1    40    1
     2     1    41    1
     3     1    42    1
     4     1    72    1
     5     2     3    1
     6     2    43    1
     7     2    44    1
     8     2    72    1
     9     3    45    1
    10     3    46    1
    11     3    74    1
    12     4     5    1
    13     4    47    1
    14     4    48    1
    15     4    74    1
    16     5    49    1
    17     5    50    1
    18     5    72    1
    19     6     7    1
    20     6    51    1
    21     6    52    1
    22     6    74    1
    23     7     8    1
    24     7    53    1
    25     7    54    1
    26     8     9    1
    27     8    55    1
    28     8    56    1
    29     9    10    1
    30     9    57    1
    31    10    19   ar
    32    10    11   ar
    33    11    12   ar
    34    12    13   ar
    35    12    58    1
    36    13    18   ar
    37    13    14   ar
    38    14    15   ar
    39    14    59    1
    40    15    16   ar
    41    15    32    1
    42    16    17   ar
    43    16    20    1
    44    17    18   ar
    45    18    19   ar
    46    20    21   am
    47    20    60    1
    48    21    22    2
    49    21    23   am
    50    23    24    1
    51    23    61    1
    52    24    29   ar
    53    24    25   ar
    54    25    26   ar
    55    25    62    1
    56    26    27   ar
    57    26    63    1
    58    27    28   ar
    59    27    30    1
    60    28    29   ar
    61    28    64    1
    62    29    65    1
    63    30    31    1
    64    31    66    1
    65    31    67    1
    66    31    68    1
    67    32    37   ar
    68    32    33   ar
    69    33    34   ar
    70    33    39    1
    71    34    35   ar
    72    34    69    1
    73    35    36   ar
    74    35    70    1
    75    36    37   ar
    76    36    71    1
    77    37    38    1
    78    72    73    1
    79    74    75    1
@<TRIPOS>MOLECULE
ZINC03815405
 77 81 0 0 0
SMALL
USER_CHARGES

@<TRIPOS>ATOM
      1 C1         12.7517   21.8929   20.9488 C.3     1  <0>1       -0.0427
      2 C2         11.2901   21.2377   19.1324 C.3     1  <0>1        0.0092
      3 C3         10.2745   20.1844   18.6833 C.3     1  <0>1        0.0094
      4 C4         11.4658   18.4976   19.9458 C.3     1  <0>1        0.0094
      5 C5         12.4814   19.5508   20.3949 C.3     1  <0>1        0.0092
      6 C6         10.0043   17.8424   18.1294 C.3     1  <0>1       -0.0300
      7 C7         10.7780   16.5520   17.8515 C.3     1  <0>1        0.0031
      8 C8          9.8159   15.4826   17.3305 C.3     1  <0>1        0.0166
      9 N1         10.5568   14.2471   17.0644 N.pl3   1  <0>1       -0.3132
     10 C9          9.8939   13.1338   16.5834 C.ar    1  <0>1        0.2171
     11 N2          8.5822   13.2143   16.3711 N.ar    1  <0>1       -0.2222
     12 C10         7.8965   12.1861   15.9141 C.ar    1  <0>1        0.0419
     13 C11         8.5814   10.9876   15.6498 C.ar    1  <0>1        0.0381
     14 C12         7.9217    9.8479   15.1614 C.ar    1  <0>1       -0.0385
     15 C13         8.6768    8.7094   14.9298 C.ar    1  <0>1        0.0258
     16 C14        10.0639    8.7324   15.1888 C.ar    1  <0>1        0.1363
     17 N3         10.6592    9.8124   15.6520 N.ar    1  <0>1       -0.2116
     18 C15         9.9801   10.9367   15.8870 C.ar    1  <0>1        0.1668
     19 N4         10.5875   12.0352   16.3531 N.ar    1  <0>1       -0.1947
     20 N5         10.8165    7.5903   14.9556 N.am    1  <0>1       -0.2536
     21 C16        12.1423    7.5959   15.1977 C.2     1  <0>1        0.3052
     22 O1         12.6788    8.6015   15.6205 O.2     1  <0>1       -0.2525
     23 N6         12.8733    6.4864   14.9713 N.am    1  <0>1       -0.2963
     24 C17        14.3145    6.4924   15.2345 C.3     1  <0>1        0.0246
     25 C18        14.7888    5.0638   15.5084 C.3     1  <0>1       -0.0345
     26 C19        16.2938    5.0700   15.7833 C.3     1  <0>1       -0.0514
     27 C20        17.0325    5.6280   14.5651 C.3     1  <0>1       -0.0529
     28 C21        16.5582    7.0566   14.2912 C.3     1  <0>1       -0.0514
     29 C22        15.0531    7.0503   14.0163 C.3     1  <0>1       -0.0345
     30 C23         8.0331    7.4775   14.4139 C.ar    1  <0>1        0.0220
     31 C24         7.5291    6.5264   15.3011 C.ar    1  <0>1        0.0502
     32 C25         6.9265    5.3829   14.8140 C.ar    1  <0>1       -0.0427
     33 C26         6.8310    5.1753   13.4499 C.ar    1  <0>1       -0.0590
     34 C27         7.3335    6.1121   12.5649 C.ar    1  <0>1       -0.0427
     35 C28         7.9340    7.2621   13.0393 C.ar    1  <0>1        0.0502
     36 Cl1         8.5646    8.4365   11.9271 Cl      1  <0>1       -0.0829
     37 Cl2         7.6540    6.7820   17.0136 Cl      1  <0>1       -0.0829
     38 H1         12.2238   22.8419   21.0423 H       1  <0>1        0.0778
     39 H2         13.1349   21.5927   21.9240 H       1  <0>1        0.0778
     40 H3         13.5816   22.0058   20.2514 H       1  <0>1        0.0778
     41 H4         12.1036   21.2903   18.4088 H       1  <0>1        0.0868
     42 H5         10.8004   22.2092   19.2004 H       1  <0>1        0.0868
     43 H6          9.8957   20.4429   17.6944 H       1  <0>1        0.0868
     44 H7          9.4475   20.1509   19.3926 H       1  <0>1        0.0868
     45 H8         10.6524   18.4449   20.6694 H       1  <0>1        0.0868
     46 H9         11.9556   17.5262   19.8774 H       1  <0>1        0.0868
     47 H10        13.3083   19.5844   19.6857 H       1  <0>1        0.0868
     48 H11        12.8605   19.2925   21.3837 H       1  <0>1        0.0868
     49 H12         9.5372   18.1915   17.2084 H       1  <0>1        0.0815
     50 H13         9.2346   17.6507   18.8771 H       1  <0>1        0.0815
     51 H14        11.2451   16.2029   18.7724 H       1  <0>1        0.0332
     52 H15        11.5476   16.7438   17.1039 H       1  <0>1        0.0332
     53 H16         9.3488   15.8317   16.4095 H       1  <0>1        0.0464
     54 H17         9.0462   15.2909   18.0782 H       1  <0>1        0.0464
     55 H18        11.5126   14.2103   17.2258 H       1  <0>1        0.1489
     56 H19         6.8325   12.2628   15.7456 H       1  <0>1        0.0838
     57 H20         6.8584    9.8588   14.9717 H       1  <0>1        0.0632
     58 H21        10.3883    6.7880   14.6183 H       1  <0>1        0.1578
     59 H22        12.4452    5.6840   14.6339 H       1  <0>1        0.1505
     60 H23        14.5225    7.1172   16.1031 H       1  <0>1        0.0499
     61 H24        14.2625    4.6663   16.3763 H       1  <0>1        0.0283
     62 H25        14.5807    4.4391   14.6398 H       1  <0>1        0.0283
     63 H26        16.5020    5.6948   16.6519 H       1  <0>1        0.0266
     64 H27        16.6318    4.0523   15.9784 H       1  <0>1        0.0266
     65 H28        16.8244    5.0032   13.6964 H       1  <0>1        0.0265
     66 H29        18.1047    5.6325   14.7609 H       1  <0>1        0.0265
     67 H30        17.0844    7.4541   13.4233 H       1  <0>1        0.0266
     68 H31        16.7662    7.6813   15.1598 H       1  <0>1        0.0266
     69 H32        14.8450    6.4256   13.1477 H       1  <0>1        0.0283
     70 H33        14.7151    8.0681   13.8211 H       1  <0>1        0.0283
     71 H34         6.5323    4.6476   15.4998 H       1  <0>1        0.0632
     72 H35         6.3624    4.2778   13.0741 H       1  <0>1        0.0618
     73 H36         7.2565    5.9440   11.5009 H       1  <0>1        0.0632
     74 N7         11.8061   20.8639   20.4659 N.4     1  <0>1        0.2405
     75 H37        11.0192   20.7995   21.1223 H       1  <0>1        0.2035
     76 N8         10.9496   18.8716   18.6121 N.4     1  <0>1        0.2427
     77 H38        11.7365   18.9361   17.9557 H       1  <0>1        0.2038
@<TRIPOS>BOND
     1     1    38    1
     2     1    39    1
     3     1    40    1
     4     1    74    1
     5     2     3    1
     6     2    41    1
     7     2    42    1
     8     2    74    1
     9     3    43    1
    10     3    44    1
    11     3    76    1
    12     4     5    1
    13     4    45    1
    14     4    46    1
    15     4    76    1
    16     5    47    1
    17     5    48    1
    18     5    74    1
    19     6     7    1
    20     6    49    1
    21     6    50    1
    22     6    76    1
    23     7     8    1
    24     7    51    1
    25     7    52    1
    26     8     9    1
    27     8    53    1
    28     8    54    1
    29     9    10    1
    30     9    55    1
    31    10    19   ar
    32    10    11   ar
    33    11    12   ar
    34    12    13   ar
    35    12    56    1
    36    13    18   ar
    37    13    14   ar
    38    14    15   ar
    39    14    57    1
    40    15    16   ar
    41    15    30    1
    42    16    17   ar
    43    16    20    1
    44    17    18   ar
    45    18    19   ar
    46    20    21   am
    47    20    58    1
    48    21    22    2
    49    21    23   am
    50    23    24    1
    51    23    59    1
    52    24    29    1
    53    24    25    1
    54    24    60    1
    55    25    26    1
    56    25    61    1
    57    25    62    1
    58    26    27    1
    59    26    63    1
    60    26    64    1
    61    27    28    1
    62    27    65    1
    63    27    66    1
    64    28    29    1
    65    28    67    1
    66    28    68    1
    67    29    69    1
    68    29    70    1
    69    30    35   ar
    70    30    31   ar
    71    31    32   ar
    72    31    37    1
    73    32    33   ar
    74    32    71    1
    75    33    34   ar
    76    33    72    1
    77    34    35   ar
    78    34    73    1
    79    35    36    1
    80    74    75    1
    81    76    77    1
@<TRIPOS>MOLECULE
ZINC03815480
 59 63 0 0 0
SMALL
USER_CHARGES

@<TRIPOS>ATOM
      1 C1         15.4689    5.4604   12.3602 C.3     1  <0>1        0.0167
      2 N1         14.7585    4.9614   13.5402 N.ar    1  <0>1       -0.2953
      3 C2         13.9061    5.7929   14.2218 C.ar    1  <0>1        0.1482
      4 C3         13.2135    5.3276   15.3607 C.ar    1  <0>1        0.0365
      5 C4         13.3925    3.9988   15.8082 C.ar    1  <0>1       -0.0366
      6 C5         14.2454    3.1764   15.1220 C.ar    1  <0>1        0.0502
      7 C6         14.9483    3.6908   13.9447 C.ar    1  <0>1        0.2604
      8 O1         15.7084    2.9656   13.3279 O.2     1  <0>1       -0.2670
      9 C7         14.4553    1.7788   15.5665 C.ar    1  <0>1        0.0239
     10 C8         15.4709    1.4773   16.4746 C.ar    1  <0>1        0.0502
     11 C9         15.6581    0.1730   16.8887 C.ar    1  <0>1       -0.0427
     12 C10        14.8480   -0.8349   16.3973 C.ar    1  <0>1       -0.0590
     13 C11        13.8429   -0.5435   15.4928 C.ar    1  <0>1       -0.0427
     14 C12        13.6419    0.7573   15.0742 C.ar    1  <0>1        0.0502
     15 Cl1        12.3806    1.1207   13.9381 Cl      1  <0>1       -0.0829
     16 Cl2        16.4929    2.7397   17.0875 Cl      1  <0>1       -0.0829
     17 C13        12.3514    6.2100   16.0289 C.ar    1  <0>1        0.0418
     18 N2         12.2227    7.4392   15.5660 N.ar    1  <0>1       -0.2219
     19 C14        12.8908    7.8428   14.4909 C.ar    1  <0>1        0.2214
     20 N3         13.7112    7.0451   13.8241 N.ar    1  <0>1       -0.1961
     21 N4         12.7191    9.1401   14.0489 N.pl3   1  <0>1       -0.2836
     22 C15        11.7675    9.9675   14.6587 C.ar    1  <0>1        0.0337
     23 C16        12.0047   11.3309   14.7741 C.ar    1  <0>1       -0.0387
     24 C17        11.0668   12.1464   15.3755 C.ar    1  <0>1       -0.0389
     25 C18         9.8860   11.6032   15.8645 C.ar    1  <0>1        0.0301
     26 C19         9.6509   10.2389   15.7538 C.ar    1  <0>1       -0.0389
     27 C20        10.5864    9.4244   15.1473 C.ar    1  <0>1       -0.0387
     28 N5          8.9352   12.4297   16.4740 N.pl3   1  <0>1       -0.3198
     29 C21         7.7686   11.6533   16.9162 C.3     1  <0>1        0.0525
     30 C22         6.7911   12.5775   17.6463 C.3     1  <0>1       -0.0160
     31 C23         7.5521   14.4425   16.3040 C.3     1  <0>1       -0.0160
     32 C24         8.5295   13.5183   15.5741 C.3     1  <0>1        0.0525
     33 C25         5.3875   14.5340   17.3870 C.3     1  <0>1       -0.0430
     34 H1         16.4225    5.8911   12.6654 H       1  <0>1        0.0457
     35 H2         15.6467    4.6374   11.6681 H       1  <0>1        0.0457
     36 H3         14.8658    6.2242   11.8691 H       1  <0>1        0.0457
     37 H4         12.8653    3.6379   16.6790 H       1  <0>1        0.0633
     38 H5         16.4414   -0.0612   17.5944 H       1  <0>1        0.0632
     39 H6         15.0013   -1.8537   16.7210 H       1  <0>1        0.0618
     40 H7         13.2140   -1.3351   15.1126 H       1  <0>1        0.0632
     41 H8         11.8044    5.8899   16.9034 H       1  <0>1        0.0838
     42 H9         13.2576    9.4783   13.3165 H       1  <0>1        0.1550
     43 H10        12.9231   11.7532   14.3938 H       1  <0>1        0.0637
     44 H11        11.2515   13.2067   15.4652 H       1  <0>1        0.0637
     45 H12         8.7348    9.8158   16.1384 H       1  <0>1        0.0637
     46 H13        10.4016    8.3641   15.0568 H       1  <0>1        0.0637
     47 H14         8.0933   10.8614   17.5912 H       1  <0>1        0.0516
     48 H15         7.2749   11.2133   16.0498 H       1  <0>1        0.0516
     49 H16         5.9116   12.0097   17.9498 H       1  <0>1        0.0830
     50 H17         7.2760   12.9960   18.5282 H       1  <0>1        0.0830
     51 H18         8.0457   14.8825   17.1705 H       1  <0>1        0.0830
     52 H19         7.2275   15.2346   15.6292 H       1  <0>1        0.0830
     53 H20         9.4091   14.0862   15.2705 H       1  <0>1        0.0516
     54 H21         8.0448   13.0995   14.6922 H       1  <0>1        0.0516
     55 H22         5.8113   14.9682   18.2925 H       1  <0>1        0.0778
     56 H23         5.1047   15.3312   16.6996 H       1  <0>1        0.0778
     57 H24         4.5063   13.9461   17.6440 H       1  <0>1        0.0778
     58 N6          6.3739   13.6544   16.7240 N.4     1  <0>1        0.2353
     59 H25         5.9407   13.2336   15.8937 H       1  <0>1        0.2032
@<TRIPOS>BOND
     1     1     2    1
     2     1    34    1
     3     1    35    1
     4     1    36    1
     5     2     7   ar
     6     2     3   ar
     7     3    20   ar
     8     3     4   ar
     9     4     5   ar
    10     4    17   ar
    11     5     6   ar
    12     5    37    1
    13     6     7   ar
    14     6     9    1
    15     7     8    2
    16     9    14   ar
    17     9    10   ar
    18    10    11   ar
    19    10    16    1
    20    11    12   ar
    21    11    38    1
    22    12    13   ar
    23    12    39    1
    24    13    14   ar
    25    13    40    1
    26    14    15    1
    27    17    18   ar
    28    17    41    1
    29    18    19   ar
    30    19    20   ar
    31    19    21    1
    32    21    22    1
    33    21    42    1
    34    22    27   ar
    35    22    23   ar
    36    23    24   ar
    37    23    43    1
    38    24    25   ar
    39    24    44    1
    40    25    26   ar
    41    25    28    1
    42    26    27   ar
    43    26    45    1
    44    27    46    1
    45    28    32    1
    46    28    29    1
    47    29    30    1
    48    29    47    1
    49    29    48    1
    50    30    49    1
    51    30    50    1
    52    30    58    1
    53    31    32    1
    54    31    51    1
    55    31    52    1
    56    31    58    1
    57    32    53    1
    58    32    54    1
    59    33    55    1
    60    33    56    1
    61    33    57    1
    62    33    58    1
    63    58    59    1
@<TRIPOS>MOLECULE
ZINC03815482
 66 69 0 0 0
SMALL
USER_CHARGES

@<TRIPOS>ATOM
      1 C1         13.5766   10.5009   14.4815 C.3     1  <0>1       -0.0469
      2 C2         12.3364    9.7207   14.0410 C.3     1  <0>1        0.0252
      3 N1         11.7642    9.0216   15.1943 N.ar    1  <0>1       -0.2925
      4 C3         10.8176    9.6466   15.9662 C.ar    1  <0>1        0.1485
      5 C4         10.2561    8.9868   17.0810 C.ar    1  <0>1        0.0365
      6 C5         10.6654    7.6749   17.4114 C.ar    1  <0>1       -0.0366
      7 C6         11.6099    7.0588   16.6348 C.ar    1  <0>1        0.0502
      8 C7         12.1724    7.7715   15.4857 C.ar    1  <0>1        0.2607
      9 O1         13.0134    7.2309   14.7898 O.2     1  <0>1       -0.2670
     10 C8         12.0595    5.6838   16.9546 C.ar    1  <0>1        0.0239
     11 C9         13.1466    5.4823   17.8059 C.ar    1  <0>1        0.0502
     12 C10        13.5578    4.1978   18.1037 C.ar    1  <0>1       -0.0427
     13 C11        12.9007    3.1126   17.5523 C.ar    1  <0>1       -0.0590
     14 C12        11.8259    3.3057   16.7031 C.ar    1  <0>1       -0.0427
     15 C13        11.4013    4.5848   16.4013 C.ar    1  <0>1        0.0502
     16 Cl1        10.0523    4.8248   15.3354 Cl      1  <0>1       -0.0829
     17 Cl2        13.9765    6.8429   18.4944 Cl      1  <0>1       -0.0829
     18 C14         9.2909    9.6611   17.8438 C.ar    1  <0>1        0.0418
     19 N2          8.9467   10.8848   17.4886 N.ar    1  <0>1       -0.2219
     20 C15         9.4965   11.4748   16.4326 C.ar    1  <0>1        0.2214
     21 N3         10.4073   10.8769   15.6798 N.ar    1  <0>1       -0.1961
     22 N4          9.0994   12.7565   16.1049 N.pl3   1  <0>1       -0.2836
     23 C16         8.2164   13.4512   16.9406 C.ar    1  <0>1        0.0338
     24 C17         8.2727   13.2684   18.3160 C.ar    1  <0>1       -0.0370
     25 C18         7.4017   13.9541   19.1395 C.ar    1  <0>1       -0.0182
     26 C19         6.4712   14.8258   18.5931 C.ar    1  <0>1        0.1209
     27 C20         6.4144   15.0090   17.2193 C.ar    1  <0>1       -0.0182
     28 C21         7.2843   14.3237   16.3944 C.ar    1  <0>1       -0.0370
     29 O2          5.6146   15.5015   19.4048 O.3     1  <0>1       -0.4867
     30 C22         4.6826   16.3826   18.7747 C.3     1  <0>1        0.1291
     31 C23         3.7316   16.9564   19.8269 C.3     1  <0>1        0.0031
     32 C24         4.8489   19.0756   20.1783 C.3     1  <0>1       -0.0347
     33 C25         5.8411   19.8009   21.0895 C.3     1  <0>1       -0.0245
     34 C26         3.7449   17.9679   22.0268 C.3     1  <0>1       -0.0347
     35 C27         3.6302   16.6278   22.7562 C.3     1  <0>1       -0.0245
     36 H1         14.3142    9.8103   14.8902 H       1  <0>1        0.0247
     37 H2         14.0023   11.0212   13.6235 H       1  <0>1        0.0247
     38 H3         13.2969   11.2272   15.2447 H       1  <0>1        0.0247
     39 H4         12.6160    8.9945   13.2780 H       1  <0>1        0.0490
     40 H5         11.5988   10.4114   13.6323 H       1  <0>1        0.0490
     41 H6         10.2388    7.1656   18.2630 H       1  <0>1        0.0633
     42 H7         14.3964    4.0403   18.7658 H       1  <0>1        0.0632
     43 H8         13.2284    2.1104   17.7854 H       1  <0>1        0.0618
     44 H9         11.3173    2.4542   16.2756 H       1  <0>1        0.0632
     45 H10         8.8388    9.1888   18.7034 H       1  <0>1        0.0838
     46 H11         9.4323   13.1754   15.2957 H       1  <0>1        0.1550
     47 H12         9.0003   12.5933   18.7419 H       1  <0>1        0.0637
     48 H13         7.4453   13.8121   20.2092 H       1  <0>1        0.0655
     49 H14         5.6894   15.6877   16.7947 H       1  <0>1        0.0655
     50 H15         7.2396   14.4662   15.3247 H       1  <0>1        0.0637
     51 H16         5.2223   17.1963   18.2903 H       1  <0>1        0.0751
     52 H17         4.1094   15.8320   18.0286 H       1  <0>1        0.0751
     53 H18         2.9748   17.5691   19.3371 H       1  <0>1        0.0848
     54 H19         3.2472   16.1400   20.3627 H       1  <0>1        0.0848
     55 H20         5.3051   18.9115   19.2021 H       1  <0>1        0.0812
     56 H21         3.9512   19.6828   20.0624 H       1  <0>1        0.0812
     57 H22         5.3849   19.9649   22.0659 H       1  <0>1        0.0281
     58 H23         6.7389   19.1937   21.2055 H       1  <0>1        0.0281
     59 H24         6.1065   20.7608   20.6466 H       1  <0>1        0.0281
     60 H25         4.2702   18.6826   22.6604 H       1  <0>1        0.0812
     61 H26         2.7475   18.3459   21.8022 H       1  <0>1        0.0812
     62 H27         3.1759   15.8911   22.0935 H       1  <0>1        0.0281
     63 H28         4.6232   16.2882   23.0507 H       1  <0>1        0.0281
     64 H29         3.0096   16.7494   23.6440 H       1  <0>1        0.0281
     65 N5          4.5157   17.7679   20.7816 N.4     1  <0>1        0.2372
     66 H30         5.3865   17.2718   21.0044 H       1  <0>1        0.2034
@<TRIPOS>BOND
     1     1     2    1
     2     1    36    1
     3     1    37    1
     4     1    38    1
     5     2     3    1
     6     2    39    1
     7     2    40    1
     8     3     8   ar
     9     3     4   ar
    10     4    21   ar
    11     4     5   ar
    12     5     6   ar
    13     5    18   ar
    14     6     7   ar
    15     6    41    1
    16     7     8   ar
    17     7    10    1
    18     8     9    2
    19    10    15   ar
    20    10    11   ar
    21    11    12   ar
    22    11    17    1
    23    12    13   ar
    24    12    42    1
    25    13    14   ar
    26    13    43    1
    27    14    15   ar
    28    14    44    1
    29    15    16    1
    30    18    19   ar
    31    18    45    1
    32    19    20   ar
    33    20    21   ar
    34    20    22    1
    35    22    23    1
    36    22    46    1
    37    23    28   ar
    38    23    24   ar
    39    24    25   ar
    40    24    47    1
    41    25    26   ar
    42    25    48    1
    43    26    27   ar
    44    26    29    1
    45    27    28   ar
    46    27    49    1
    47    28    50    1
    48    29    30    1
    49    30    31    1
    50    30    51    1
    51    30    52    1
    52    31    53    1
    53    31    54    1
    54    31    65    1
    55    32    33    1
    56    32    55    1
    57    32    56    1
    58    32    65    1
    59    33    57    1
    60    33    58    1
    61    33    59    1
    62    34    35    1
    63    34    60    1
    64    34    61    1
    65    34    65    1
    66    35    62    1
    67    35    63    1
    68    35    64    1
    69    65    66    1
@<TRIPOS>MOLECULE
ZINC03815483
 63 66 0 0 0
SMALL
USER_CHARGES

@<TRIPOS>ATOM
      1 C1         13.5776   10.5010   14.4844 C.3     1  <0>1       -0.0469
      2 C2         12.3376    9.7214   14.0421 C.3     1  <0>1        0.0252
      3 N1         11.7642    9.0216   15.1943 N.ar    1  <0>1       -0.2925
      4 C3         10.8170    9.6462   15.9658 C.ar    1  <0>1        0.1485
      5 C4         10.2543    8.9859   17.0795 C.ar    1  <0>1        0.0365
      6 C5         10.6629    7.6736   17.4094 C.ar    1  <0>1       -0.0366
      7 C6         11.6080    7.0578   16.6333 C.ar    1  <0>1        0.0502
      8 C7         12.1718    7.7712   15.4854 C.ar    1  <0>1        0.2607
      9 O1         13.0134    7.2310   14.7898 O.2     1  <0>1       -0.2670
     10 C8         12.0571    5.6826   16.9526 C.ar    1  <0>1        0.0239
     11 C9         13.1432    5.4801   17.8048 C.ar    1  <0>1        0.0502
     12 C10        13.5538    4.1954   18.1023 C.ar    1  <0>1       -0.0427
     13 C11        12.8969    3.1107   17.5493 C.ar    1  <0>1       -0.0590
     14 C12        11.8230    3.3046   16.6993 C.ar    1  <0>1       -0.0427
     15 C13        11.3991    4.5840   16.3978 C.ar    1  <0>1        0.0502
     16 Cl1        10.0512    4.8252   15.3309 Cl      1  <0>1       -0.0829
     17 Cl2        13.9727    6.8401   18.4950 Cl      1  <0>1       -0.0829
     18 C14         9.2884    9.6599   17.8418 C.ar    1  <0>1        0.0418
     19 N2          8.9448   10.8838   17.4871 N.ar    1  <0>1       -0.2219
     20 C15         9.4958   11.4744   16.4322 C.ar    1  <0>1        0.2214
     21 N3         10.4073   10.8769   15.6797 N.ar    1  <0>1       -0.1961
     22 N4          9.0994   12.7565   16.1049 N.pl3   1  <0>1       -0.2836
     23 C16         8.2156   13.4508   16.9401 C.ar    1  <0>1        0.0338
     24 C17         8.2595   13.2547   18.3142 C.ar    1  <0>1       -0.0370
     25 C18         7.3878   13.9401   19.1372 C.ar    1  <0>1       -0.0180
     26 C19         6.4688   14.8245   18.5918 C.ar    1  <0>1        0.1264
     27 C20         6.4244   15.0209   17.2193 C.ar    1  <0>1       -0.0180
     28 C21         7.2951   14.3360   16.3948 C.ar    1  <0>1       -0.0370
     29 O2          5.6115   15.4998   19.4030 O.3     1  <0>1       -0.4543
     30 C22         4.6918   16.3944   18.7739 C.3     1  <0>1        0.1169
     31 C23         2.5813   15.3197   19.2770 C.3     1  <0>1       -0.0315
     32 C24         3.1153   14.1852   20.1538 C.3     1  <0>1       -0.0244
     33 C25         2.9298   16.3498   17.1137 C.3     1  <0>1       -0.0315
     34 C26         2.0446   15.3857   16.3214 C.3     1  <0>1       -0.0244
     35 H1         13.2974   11.2268   15.2477 H       1  <0>1        0.0247
     36 H2         14.3146    9.8099   14.8933 H       1  <0>1        0.0247
     37 H3         14.0043   11.0217   13.6270 H       1  <0>1        0.0247
     38 H4         12.6180    8.9956   13.2787 H       1  <0>1        0.0490
     39 H5         11.6007   10.4125   13.6331 H       1  <0>1        0.0490
     40 H6         10.2354    7.1639   18.2602 H       1  <0>1        0.0633
     41 H7         14.3918    4.0373   18.7649 H       1  <0>1        0.0632
     42 H8         13.2243    2.1083   17.7822 H       1  <0>1        0.0618
     43 H9         11.3147    2.4535   16.2706 H       1  <0>1        0.0632
     44 H10         8.8353    9.1871   18.7006 H       1  <0>1        0.0838
     45 H11         9.4333   13.1759   15.2964 H       1  <0>1        0.1550
     46 H12         8.9781   12.5697   18.7394 H       1  <0>1        0.0637
     47 H13         7.4219   13.7877   20.2058 H       1  <0>1        0.0655
     48 H14         5.7084   15.7095   16.7954 H       1  <0>1        0.0655
     49 H15         7.2600   14.4889   15.3263 H       1  <0>1        0.0637
     50 H16         4.3248   17.1129   19.5067 H       1  <0>1        0.1300
     51 H17         5.1959   16.9248   17.9659 H       1  <0>1        0.1300
     52 H18         2.4123   16.2045   19.8906 H       1  <0>1        0.0813
     53 H19         1.6423   15.0119   18.8169 H       1  <0>1        0.0813
     54 H20         2.3451   13.8801   20.8621 H       1  <0>1        0.0281
     55 H21         3.3873   13.3374   19.5251 H       1  <0>1        0.0281
     56 H22         3.9941   14.5301   20.6987 H       1  <0>1        0.0281
     57 H23         2.3203   17.1641   17.5055 H       1  <0>1        0.0813
     58 H24         3.7013   16.7558   16.4594 H       1  <0>1        0.0813
     59 H25         2.6583   14.5851   15.9083 H       1  <0>1        0.0281
     60 H26         1.2889   14.9604   16.9817 H       1  <0>1        0.0281
     61 H27         1.5561   15.9247   15.5097 H       1  <0>1        0.0281
     62 N5          3.5717   15.6061   18.2180 N.4     1  <0>1        0.2633
     63 H28         3.9371   14.7182   17.8541 H       1  <0>1        0.2070
@<TRIPOS>BOND
     1     1     2    1
     2     1    35    1
     3     1    36    1
     4     1    37    1
     5     2     3    1
     6     2    38    1
     7     2    39    1
     8     3     8   ar
     9     3     4   ar
    10     4    21   ar
    11     4     5   ar
    12     5     6   ar
    13     5    18   ar
    14     6     7   ar
    15     6    40    1
    16     7     8   ar
    17     7    10    1
    18     8     9    2
    19    10    15   ar
    20    10    11   ar
    21    11    12   ar
    22    11    17    1
    23    12    13   ar
    24    12    41    1
    25    13    14   ar
    26    13    42    1
    27    14    15   ar
    28    14    43    1
    29    15    16    1
    30    18    19   ar
    31    18    44    1
    32    19    20   ar
    33    20    21   ar
    34    20    22    1
    35    22    23    1
    36    22    45    1
    37    23    28   ar
    38    23    24   ar
    39    24    25   ar
    40    24    46    1
    41    25    26   ar
    42    25    47    1
    43    26    27   ar
    44    26    29    1
    45    27    28   ar
    46    27    48    1
    47    28    49    1
    48    29    30    1
    49    30    50    1
    50    30    51    1
    51    30    62    1
    52    31    32    1
    53    31    52    1
    54    31    53    1
    55    31    62    1
    56    32    54    1
    57    32    55    1
    58    32    56    1
    59    33    34    1
    60    33    57    1
    61    33    58    1
    62    33    62    1
    63    34    59    1
    64    34    60    1
    65    34    61    1
    66    62    63    1
@<TRIPOS>MOLECULE
ZINC03815484
 35 37 0 0 0
SMALL
USER_CHARGES

@<TRIPOS>ATOM
      1 C1         10.1029    8.7157   19.2522 C.ar    1  <0>1       -0.0611
      2 C2          8.9048    8.5734   19.9329 C.ar    1  <0>1       -0.0600
      3 C3          7.7939    9.3028   19.5612 C.ar    1  <0>1       -0.0399
      4 C4          7.8685   10.1936   18.4958 C.ar    1  <0>1        0.0416
      5 C5          9.0824   10.3351   17.8098 C.ar    1  <0>1        0.0084
      6 C6         10.1963    9.5941   18.1919 C.ar    1  <0>1       -0.0521
      7 C7          8.8463   11.3374   16.7471 C.2     1  <0>1        0.0479
      8 C8          9.7538   11.8041   15.8154 C.2     1  <0>1       -0.0254
      9 C9          9.4058   12.8759   14.9677 C.ar    1  <0>1        0.0432
     10 C10         9.8198   13.0528   13.6563 C.ar    1  <0>1       -0.0222
     11 C11         9.2401   14.2382   13.2005 C.ar    1  <0>1       -0.0406
     12 C12         8.4990   14.7571   14.2110 C.ar    1  <0>1        0.0024
     13 N1          8.5867   13.9371   15.2884 N.ar    1  <0>1       -0.3609
     14 H1          8.1479   14.0756   16.1424 H       1  <0>1        0.1653
     15 C13        10.7244   12.1382   12.8713 C.3     1  <0>1       -0.0156
     16 C14         9.8949   11.0158   12.2443 C.3     1  <0>1        0.0488
     17 C15        10.7994   10.1011   11.4593 C.2     1  <0>1        0.3050
     18 O1         11.9857   10.3240   11.4066 O.2     1  <0>1       -0.2510
     19 C16         7.4374   11.7246   16.8936 C.2     1  <0>1        0.2490
     20 O2          6.8414   12.5318   16.2026 O.2     1  <0>1       -0.2698
     21 N2          6.9215   11.0351   17.9252 N.am    1  <0>1       -0.2809
     22 H2         10.9651    8.1387   19.5520 H       1  <0>1        0.0618
     23 H3          8.8393    7.8843   20.7619 H       1  <0>1        0.0618
     24 H4          6.8654    9.1830   20.0997 H       1  <0>1        0.0636
     25 H5         11.1301    9.7062   17.6612 H       1  <0>1        0.0624
     26 H6         10.7296   11.3479   15.7365 H       1  <0>1        0.0646
     27 H7          9.3607   14.6666   12.2165 H       1  <0>1        0.0635
     28 H8          7.9278   15.6724   14.1641 H       1  <0>1        0.0807
     29 H9         11.2210   12.7060   12.0845 H       1  <0>1        0.0319
     30 H10        11.4728   11.7084   13.5370 H       1  <0>1        0.0319
     31 H11         9.3983   10.4480   13.0311 H       1  <0>1        0.0381
     32 H12         9.1464   11.4455   11.5787 H       1  <0>1        0.0381
     33 H13         6.0039   11.1120   18.2300 H       1  <0>1        0.1552
     34 O3         10.2871    9.0387   10.8185 O.3     1  <0>1       -0.4806
     35 H           9.3671    8.8657   10.8593 H       1  <0>1        0.2951
@<TRIPOS>BOND
     1     1     6   ar
     2     1     2   ar
     3     1    22    1
     4     2     3   ar
     5     2    23    1
     6     3     4   ar
     7     3    24    1
     8     4    21    1
     9     4     5   ar
    10     5     6   ar
    11     5     7    1
    12     6    25    1
    13     7     8    2
    14     7    19    1
    15     8     9    1
    16     8    26    1
    17     9    13   ar
    18     9    10   ar
    19    10    11   ar
    20    10    15    1
    21    11    12   ar
    22    11    27    1
    23    12    13   ar
    24    12    28    1
    25    13    14    1
    26    15    16    1
    27    15    29    1
    28    15    30    1
    29    16    17    1
    30    16    31    1
    31    16    32    1
    32    17    18    2
    33    17    34    1
    34    19    20    2
    35    19    21   am
    36    21    33    1
    37    34    35    1
@<TRIPOS>MOLECULE
ZINC03815485
 38 40 0 0 0
SMALL
USER_CHARGES

@<TRIPOS>ATOM
      1 C1         13.3576   10.7305   12.8163 C.3     1  <0>1       -0.0380
      2 C2         12.4290   11.5592   13.6659 C.ar    1  <0>1       -0.0294
      3 C3         12.7482   12.1696   14.8344 C.ar    1  <0>1        0.0053
      4 N1         11.6549   12.8206   15.3050 N.ar    1  <0>1       -0.3606
      5 H1         11.6130   13.3368   16.1252 H       1  <0>1        0.1653
      6 C4         10.6135   12.6255   14.4233 C.ar    1  <0>1        0.0434
      7 C5         11.0869   11.8290   13.3919 C.ar    1  <0>1       -0.0193
      8 C6         10.3019   11.3483   12.1987 C.3     1  <0>1       -0.0154
      9 C7         10.4267   12.3657   11.0627 C.3     1  <0>1        0.0488
     10 C8          9.6418   11.8850    9.8694 C.2     1  <0>1        0.3050
     11 O1          9.0439   10.8363    9.9222 O.2     1  <0>1       -0.2510
     12 C9          9.3055   13.1370   14.5500 C.2     1  <0>1       -0.0254
     13 C10         8.7372   13.2784   15.8016 C.2     1  <0>1        0.0479
     14 C11         7.4523   13.9306   16.1382 C.ar    1  <0>1        0.0084
     15 C12         6.4776   14.5675   15.3767 C.ar    1  <0>1       -0.0521
     16 C13         5.3583   15.0873   15.9942 C.ar    1  <0>1       -0.0611
     17 C14         5.2113   14.9833   17.3676 C.ar    1  <0>1       -0.0600
     18 C15         6.1745   14.3576   18.1326 C.ar    1  <0>1       -0.0399
     19 C16         7.3072   13.8233   17.5281 C.ar    1  <0>1        0.0416
     20 N2          8.4079   13.1560   18.0513 N.am    1  <0>1       -0.2809
     21 C17         9.2774   12.8134   17.0855 C.2     1  <0>1        0.2490
     22 O2         10.3297   12.2210   17.2470 O.2     1  <0>1       -0.2698
     23 H2         13.3016    9.6875   13.1279 H       1  <0>1        0.0278
     24 H3         13.0638   10.8133   11.7699 H       1  <0>1        0.0278
     25 H4         14.3791   11.0913   12.9365 H       1  <0>1        0.0278
     26 H5         13.7162   12.1417   15.3127 H       1  <0>1        0.0810
     27 H6         10.6942   10.3861   11.8694 H       1  <0>1        0.0319
     28 H7          9.2531   11.2381   12.4741 H       1  <0>1        0.0319
     29 H8         10.0345   13.3279   11.3919 H       1  <0>1        0.0381
     30 H9         11.4755   12.4759   10.7873 H       1  <0>1        0.0381
     31 H10         8.7479   13.4182   13.6689 H       1  <0>1        0.0646
     32 H11         6.5929   14.6482   14.3059 H       1  <0>1        0.0624
     33 H12         4.5976   15.5793   15.4062 H       1  <0>1        0.0618
     34 H13         4.3346   15.3961   17.8445 H       1  <0>1        0.0618
     35 H14         6.0483   14.2825   19.2025 H       1  <0>1        0.0636
     36 H15         8.5326   12.9619   18.9933 H       1  <0>1        0.1552
     37 O3          9.6068   12.6218    8.7480 O.3     1  <0>1       -0.4806
     38 H          10.0704   13.4351    8.7070 H       1  <0>1        0.2951
@<TRIPOS>BOND
     1     1     2    1
     2     1    23    1
     3     1    24    1
     4     1    25    1
     5     2     7   ar
     6     2     3   ar
     7     3     4   ar
     8     3    26    1
     9     4     5    1
    10     4     6   ar
    11     6     7   ar
    12     6    12    1
    13     7     8    1
    14     8     9    1
    15     8    27    1
    16     8    28    1
    17     9    10    1
    18     9    29    1
    19     9    30    1
    20    10    11    2
    21    10    37    1
    22    12    13    2
    23    12    31    1
    24    13    21    1
    25    13    14    1
    26    14    19   ar
    27    14    15   ar
    28    15    16   ar
    29    15    32    1
    30    16    17   ar
    31    16    33    1
    32    17    18   ar
    33    17    34    1
    34    18    19   ar
    35    18    35    1
    36    19    20    1
    37    20    21   am
    38    20    36    1
    39    21    22    2
    40    37    38    1
@<TRIPOS>MOLECULE
ZINC03815488
 63 66 0 0 0
SMALL
USER_CHARGES

@<TRIPOS>ATOM
      1 C1         20.2873   -4.2748   17.9406 C.3     1  <0>1       -0.0245
      2 C2         18.8726   -3.8409   17.5512 C.3     1  <0>1       -0.0347
      3 C3         18.0029   -4.4136   19.7372 C.3     1  <0>1       -0.0347
      4 C4         16.9664   -5.4222   19.2378 C.3     1  <0>1       -0.0245
      5 C5         18.8600   -2.1878   19.3203 C.3     1  <0>1        0.0031
      6 C6         18.7931   -1.0126   18.3429 C.3     1  <0>1        0.1291
      7 O1         17.4338   -0.6006   18.1857 O.3     1  <0>1       -0.4866
      8 C7         17.1980    0.4404   17.3444 C.ar    1  <0>1        0.1225
      9 C8         18.2550    1.0561   16.6883 C.ar    1  <0>1       -0.0198
     10 C9         18.0165    2.1116   15.8289 C.ar    1  <0>1       -0.0566
     11 C10        16.7267    2.5643   15.6279 C.ar    1  <0>1       -0.0402
     12 C11        15.6655    1.9553   16.2859 C.ar    1  <0>1        0.0370
     13 C12        15.9029    0.8913   17.1456 C.ar    1  <0>1        0.0013
     14 N1         14.3605    2.4135   16.0831 N.pl3   1  <0>1       -0.2835
     15 C13        14.1180    3.7660   15.9376 C.ar    1  <0>1        0.2214
     16 N2         15.1227    4.6185   16.1084 N.ar    1  <0>1       -0.2219
     17 C14        14.9452    5.9193   15.9753 C.ar    1  <0>1        0.0418
     18 C15        13.6628    6.3933   15.6585 C.ar    1  <0>1        0.0365
     19 C16        13.4092    7.7757   15.5090 C.ar    1  <0>1       -0.0366
     20 C17        12.1409    8.1882   15.1995 C.ar    1  <0>1        0.0502
     21 C18        11.0814    7.1911   15.0319 C.ar    1  <0>1        0.2604
     22 O2          9.9502    7.5491   14.7562 O.2     1  <0>1       -0.2670
     23 N3         11.3517    5.8799   15.1808 N.ar    1  <0>1       -0.2953
     24 C19        12.6198    5.4574   15.4904 C.ar    1  <0>1        0.1482
     25 N4         12.8916    4.1655   15.6383 N.ar    1  <0>1       -0.1961
     26 C20        10.2807    4.8949   15.0099 C.3     1  <0>1        0.0167
     27 C21        11.8426    9.6303   15.0361 C.ar    1  <0>1        0.0239
     28 C22        11.4355   10.3903   16.1332 C.ar    1  <0>1        0.0502
     29 C23        11.1633   11.7351   15.9749 C.ar    1  <0>1       -0.0427
     30 C24        11.2843   12.3265   14.7303 C.ar    1  <0>1       -0.0590
     31 C25        11.6824   11.5776   13.6376 C.ar    1  <0>1       -0.0427
     32 C26        11.9622   10.2329   13.7832 C.ar    1  <0>1        0.0502
     33 Cl1        12.4612    9.2946   12.4105 Cl      1  <0>1       -0.0829
     34 Cl2        11.2768    9.6485   17.6946 Cl      1  <0>1       -0.0829
     35 H1         20.2328   -5.1348   18.6080 H       1  <0>1        0.0281
     36 H2         20.8440   -4.5457   17.0436 H       1  <0>1        0.0281
     37 H3         20.7927   -3.4528   18.4475 H       1  <0>1        0.0281
     38 H4         18.3328   -4.6922   17.1363 H       1  <0>1        0.0812
     39 H5         18.9281   -3.0476   16.8059 H       1  <0>1        0.0812
     40 H6         18.9569   -4.9184   19.8894 H       1  <0>1        0.0812
     41 H7         17.6655   -3.9823   20.6795 H       1  <0>1        0.0812
     42 H8         16.0458   -4.8991   18.9789 H       1  <0>1        0.0281
     43 H9         17.3530   -5.9348   18.3570 H       1  <0>1        0.0281
     44 H10        16.7618   -6.1513   20.0219 H       1  <0>1        0.0281
     45 H11        19.9023   -2.4446   19.5089 H       1  <0>1        0.0848
     46 H12        18.3793   -1.9085   20.2578 H       1  <0>1        0.0848
     47 H13        19.3818   -0.1820   18.7324 H       1  <0>1        0.0751
     48 H14        19.1935   -1.3202   17.3769 H       1  <0>1        0.0751
     49 H15        19.2648    0.7072   16.8465 H       1  <0>1        0.0654
     50 H16        18.8403    2.5864   15.3168 H       1  <0>1        0.0619
     51 H17        16.5434    3.3918   14.9586 H       1  <0>1        0.0636
     52 H18        15.0798    0.4164   17.6587 H       1  <0>1        0.0673
     53 H19        13.6252    1.7820   16.0443 H       1  <0>1        0.1550
     54 H20        15.7684    6.6050   16.1115 H       1  <0>1        0.0838
     55 H21        14.2040    8.4958   15.6362 H       1  <0>1        0.0633
     56 H22         9.7933    4.7182   15.9686 H       1  <0>1        0.0457
     57 H23         9.5501    5.2731   14.2949 H       1  <0>1        0.0457
     58 H24        10.7022    3.9607   14.6389 H       1  <0>1        0.0457
     59 H25        10.8521   12.3254   16.8240 H       1  <0>1        0.0632
     60 H26        11.0666   13.3776   14.6111 H       1  <0>1        0.0618
     61 H27        11.7742   12.0451   12.6685 H       1  <0>1        0.0632
     62 N5         18.1410   -3.3379   18.7329 N.4     1  <0>1        0.2372
     63 H28        17.2053   -3.0324   18.4407 H       1  <0>1        0.2034
@<TRIPOS>BOND
     1     1     2    1
     2     1    35    1
     3     1    36    1
     4     1    37    1
     5     2    38    1
     6     2    39    1
     7     2    62    1
     8     3     4    1
     9     3    40    1
    10     3    41    1
    11     3    62    1
    12     4    42    1
    13     4    43    1
    14     4    44    1
    15     5     6    1
    16     5    45    1
    17     5    46    1
    18     5    62    1
    19     6     7    1
    20     6    47    1
    21     6    48    1
    22     7     8    1
    23     8    13   ar
    24     8     9   ar
    25     9    10   ar
    26     9    49    1
    27    10    11   ar
    28    10    50    1
    29    11    12   ar
    30    11    51    1
    31    12    13   ar
    32    12    14    1
    33    13    52    1
    34    14    15    1
    35    14    53    1
    36    15    25   ar
    37    15    16   ar
    38    16    17   ar
    39    17    18   ar
    40    17    54    1
    41    18    24   ar
    42    18    19   ar
    43    19    20   ar
    44    19    55    1
    45    20    21   ar
    46    20    27    1
    47    21    22    2
    48    21    23   ar
    49    23    24   ar
    50    23    26    1
    51    24    25   ar
    52    26    56    1
    53    26    57    1
    54    26    58    1
    55    27    32   ar
    56    27    28   ar
    57    28    29   ar
    58    28    34    1
    59    29    30   ar
    60    29    59    1
    61    30    31   ar
    62    30    60    1
    63    31    32   ar
    64    31    61    1
    65    32    33    1
    66    62    63    1
@<TRIPOS>MOLECULE
ZINC03815489
 60 63 0 0 0
SMALL
USER_CHARGES

@<TRIPOS>ATOM
      1 C1         12.3399    9.7226   14.0440 C.3     1  <0>1        0.0167
      2 N1         11.7642    9.0215   15.1943 N.ar    1  <0>1       -0.2953
      3 C2         10.8159    9.6457   15.9649 C.ar    1  <0>1        0.1482
      4 C3         10.2511    8.9842   17.0768 C.ar    1  <0>1        0.0365
      5 C4         10.6586    7.6713   17.4059 C.ar    1  <0>1       -0.0366
      6 C5         11.6048    7.0561   16.6306 C.ar    1  <0>1        0.0502
      7 C6         12.1708    7.7707   15.4845 C.ar    1  <0>1        0.2604
      8 O1         13.0134    7.2309   14.7898 O.2     1  <0>1       -0.2670
      9 C7         12.0527    5.6803   16.9490 C.ar    1  <0>1        0.0239
     10 C8         13.1374    5.4765   17.8029 C.ar    1  <0>1        0.0502
     11 C9         13.5474    4.1911   18.0987 C.ar    1  <0>1       -0.0427
     12 C10        12.8911    3.1075   17.5434 C.ar    1  <0>1       -0.0590
     13 C11        11.8182    3.3027   16.6924 C.ar    1  <0>1       -0.0427
     14 C12        11.3952    4.5828   16.3918 C.ar    1  <0>1        0.0502
     15 Cl1        10.0493    4.8257   15.3227 Cl      1  <0>1       -0.0829
     16 Cl2        13.9661    6.8352   18.4962 Cl      1  <0>1       -0.0829
     17 C13         9.2842    9.6576   17.8383 C.ar    1  <0>1        0.0418
     18 N2          8.9417   10.8822   17.4845 N.ar    1  <0>1       -0.2219
     19 C14         9.4947   11.4739   16.4312 C.ar    1  <0>1        0.2214
     20 N3         10.4072   10.8769   15.6796 N.ar    1  <0>1       -0.1961
     21 N4          9.0993   12.7566   16.1049 N.pl3   1  <0>1       -0.2836
     22 C15         8.2200   13.4528   16.9431 C.ar    1  <0>1        0.0338
     23 C16         8.2731   13.2621   18.3175 C.ar    1  <0>1       -0.0370
     24 C17         7.4058   13.9495   19.1435 C.ar    1  <0>1       -0.0182
     25 C18         6.4820   14.8304   18.6007 C.ar    1  <0>1        0.1206
     26 C19         6.4282   15.0213   17.2277 C.ar    1  <0>1       -0.0182
     27 C20         7.2946   14.3345   16.4003 C.ar    1  <0>1       -0.0370
     28 O2          5.6289   15.5076   19.4148 O.3     1  <0>1       -0.4918
     29 C21         4.7037   16.3983   18.7881 C.3     1  <0>1        0.0944
     30 C22         3.8337   17.0642   19.8561 C.3     1  <0>1        0.0217
     31 C23         2.8432   18.0179   19.1851 C.3     1  <0>1       -0.0293
     32 C24         2.8110   19.5362   21.0710 C.3     1  <0>1       -0.0433
     33 C25         0.8945   19.3944   19.5981 C.3     1  <0>1       -0.0433
     34 H1         13.2230   10.2773   14.3613 H       1  <0>1        0.0457
     35 H2         12.6213    8.9977   13.2802 H       1  <0>1        0.0457
     36 H3         11.6039   10.4145   13.6345 H       1  <0>1        0.0457
     37 H4         10.2294    7.1607   18.2552 H       1  <0>1        0.0633
     38 H5         14.3846    4.0319   18.7620 H       1  <0>1        0.0632
     39 H6         13.2181    2.1046   17.7749 H       1  <0>1        0.0618
     40 H7         11.3103    2.4525   16.2618 H       1  <0>1        0.0632
     41 H8          8.8294    9.1840   18.6958 H       1  <0>1        0.0838
     42 H9          9.4309   13.1750   15.2949 H       1  <0>1        0.1550
     43 H10         8.9956   12.5800   18.7408 H       1  <0>1        0.0637
     44 H11         7.4470   13.8015   20.2126 H       1  <0>1        0.0655
     45 H12         5.7084   15.7071   16.8058 H       1  <0>1        0.0655
     46 H13         7.2523   14.4829   15.3314 H       1  <0>1        0.0637
     47 H14         5.2516   17.1628   18.2373 H       1  <0>1        0.0698
     48 H15         4.0699   15.8389   18.1001 H       1  <0>1        0.0698
     49 H16         3.2857   16.2997   20.4069 H       1  <0>1        0.0350
     50 H17         4.4675   17.6237   20.5442 H       1  <0>1        0.0350
     51 H18         3.3911   18.7825   18.6343 H       1  <0>1        0.0815
     52 H19         2.2093   17.4585   18.4971 H       1  <0>1        0.0815
     53 H20         3.2755   20.3134   20.4640 H       1  <0>1        0.0777
     54 H21         2.1680   19.9966   21.8211 H       1  <0>1        0.0777
     55 H22         3.5856   18.9508   21.5664 H       1  <0>1        0.0777
     56 H23         0.2758   18.7059   19.0226 H       1  <0>1        0.0777
     57 H24         0.2922   19.8579   20.3794 H       1  <0>1        0.0777
     58 H25         1.2895   20.1665   18.9378 H       1  <0>1        0.0777
     59 N5          1.9967   18.6366   20.2270 N.4     1  <0>1        0.2310
     60 H26         1.5985   17.8961   20.8164 H       1  <0>1        0.2028
@<TRIPOS>BOND
     1     1     2    1
     2     1    34    1
     3     1    35    1
     4     1    36    1
     5     2     7   ar
     6     2     3   ar
     7     3    20   ar
     8     3     4   ar
     9     4     5   ar
    10     4    17   ar
    11     5     6   ar
    12     5    37    1
    13     6     7   ar
    14     6     9    1
    15     7     8    2
    16     9    14   ar
    17     9    10   ar
    18    10    11   ar
    19    10    16    1
    20    11    12   ar
    21    11    38    1
    22    12    13   ar
    23    12    39    1
    24    13    14   ar
    25    13    40    1
    26    14    15    1
    27    17    18   ar
    28    17    41    1
    29    18    19   ar
    30    19    20   ar
    31    19    21    1
    32    21    22    1
    33    21    42    1
    34    22    27   ar
    35    22    23   ar
    36    23    24   ar
    37    23    43    1
    38    24    25   ar
    39    24    44    1
    40    25    26   ar
    41    25    28    1
    42    26    27   ar
    43    26    45    1
    44    27    46    1
    45    28    29    1
    46    29    30    1
    47    29    47    1
    48    29    48    1
    49    30    31    1
    50    30    49    1
    51    30    50    1
    52    31    51    1
    53    31    52    1
    54    31    59    1
    55    32    53    1
    56    32    54    1
    57    32    55    1
    58    32    59    1
    59    33    56    1
    60    33    57    1
    61    33    58    1
    62    33    59    1
    63    59    60    1
@<TRIPOS>MOLECULE
ZINC03815490
 57 60 0 0 0
SMALL
USER_CHARGES

@<TRIPOS>ATOM
      1 C1         11.4259    9.4829   13.6316 C.3     1  <0>1        0.0167
      2 N1         11.9920    9.4778   14.9827 N.ar    1  <0>1       -0.2953
      3 C2         11.4698   10.3094   15.9409 C.ar    1  <0>1        0.1482
      4 C3         12.0037   10.3168   17.2479 C.ar    1  <0>1        0.0365
      5 C4         13.0826    9.4660   17.5803 C.ar    1  <0>1       -0.0366
      6 C5         13.5966    8.6390   16.6178 C.ar    1  <0>1        0.0502
      7 C6         13.0196    8.6564   15.2718 C.ar    1  <0>1        0.2604
      8 O1         13.4712    7.9242   14.4094 O.2     1  <0>1       -0.2670
      9 C7         14.7269    7.7352   16.9348 C.ar    1  <0>1        0.0239
     10 C8         16.0414    8.1680   16.7561 C.ar    1  <0>1        0.0502
     11 C9         17.0907    7.3217   17.0572 C.ar    1  <0>1       -0.0427
     12 C10        16.8406    6.0447   17.5263 C.ar    1  <0>1       -0.0590
     13 C11        15.5398    5.6079   17.7011 C.ar    1  <0>1       -0.0427
     14 C12        14.4815    6.4455   17.4079 C.ar    1  <0>1        0.0502
     15 Cl1        12.8497    5.8950   17.6268 Cl      1  <0>1       -0.0829
     16 Cl2        16.3574    9.7682   16.1620 Cl      1  <0>1       -0.0829
     17 C13        11.4405   11.1818   18.1981 C.ar    1  <0>1        0.0418
     18 N2         10.4344   11.9536   17.8318 N.ar    1  <0>1       -0.2219
     19 C14         9.9575   11.9199   16.5924 C.ar    1  <0>1        0.2214
     20 N3         10.4526   11.1170   15.6628 N.ar    1  <0>1       -0.1961
     21 N4          8.9026   12.7486   16.2625 N.pl3   1  <0>1       -0.2836
     22 C15         8.4221   13.6754   17.1957 C.ar    1  <0>1        0.0338
     23 C16         9.2975   14.2809   18.0875 C.ar    1  <0>1       -0.0370
     24 C17         8.8229   15.1951   19.0072 C.ar    1  <0>1       -0.0182
     25 C18         7.4721   15.5089   19.0401 C.ar    1  <0>1        0.1209
     26 C19         6.5969   14.9045   18.1496 C.ar    1  <0>1       -0.0182
     27 C20         7.0699   13.9898   17.2295 C.ar    1  <0>1       -0.0370
     28 O2          7.0056   16.4099   19.9455 O.3     1  <0>1       -0.4867
     29 C21         5.6036   16.6857   19.9231 C.3     1  <0>1        0.1291
     30 C22         5.2690   17.7150   21.0046 C.3     1  <0>1        0.0026
     31 C23         5.2414   19.6889   19.6026 C.3     1  <0>1       -0.0432
     32 C24         6.0322   19.8370   21.8863 C.3     1  <0>1       -0.0432
     33 H1         11.9494   10.2186   13.0210 H       1  <0>1        0.0457
     34 H2         11.5392    8.4944   13.1863 H       1  <0>1        0.0457
     35 H3         10.3677    9.7395   13.6819 H       1  <0>1        0.0457
     36 H4         13.4944    9.4676   18.5787 H       1  <0>1        0.0633
     37 H5         18.1086    7.6566   16.9227 H       1  <0>1        0.0632
     38 H6         17.6645    5.3856   17.7567 H       1  <0>1        0.0618
     39 H7         15.3512    4.6095   18.0673 H       1  <0>1        0.0632
     40 H8         11.8219   11.2151   19.2080 H       1  <0>1        0.0838
     41 H9          8.4948   12.6885   15.3844 H       1  <0>1        0.1550
     42 H10        10.3499   14.0402   18.0589 H       1  <0>1        0.0637
     43 H11         9.5035   15.6660   19.7010 H       1  <0>1        0.0655
     44 H12         5.5453   15.1491   18.1760 H       1  <0>1        0.0655
     45 H13         6.3883   13.5190   16.5365 H       1  <0>1        0.0637
     46 H14         5.3268   17.0820   18.9463 H       1  <0>1        0.0751
     47 H15         5.0495   15.7664   20.1127 H       1  <0>1        0.0751
     48 H16         4.1903   17.8675   21.0397 H       1  <0>1        0.0848
     49 H17         5.6164   17.3518   21.9719 H       1  <0>1        0.0848
     50 H18         4.2130   19.8952   19.8989 H       1  <0>1        0.0777
     51 H19         5.7540   20.6274   19.3915 H       1  <0>1        0.0777
     52 H20         5.2438   19.0645   18.7091 H       1  <0>1        0.0777
     53 H21         6.6801   19.3578   22.6204 H       1  <0>1        0.0777
     54 H22         6.4500   20.8050   21.6099 H       1  <0>1        0.0777
     55 H23         5.0400   19.9783   22.3147 H       1  <0>1        0.0777
     56 N5          5.9601   18.9814   20.6831 N.4     1  <0>1        0.2333
     57 H24         6.9137   18.7699   20.3667 H       1  <0>1        0.2029
@<TRIPOS>BOND
     1     1     2    1
     2     1    33    1
     3     1    34    1
     4     1    35    1
     5     2     7   ar
     6     2     3   ar
     7     3    20   ar
     8     3     4   ar
     9     4     5   ar
    10     4    17   ar
    11     5     6   ar
    12     5    36    1
    13     6     7   ar
    14     6     9    1
    15     7     8    2
    16     9    14   ar
    17     9    10   ar
    18    10    11   ar
    19    10    16    1
    20    11    12   ar
    21    11    37    1
    22    12    13   ar
    23    12    38    1
    24    13    14   ar
    25    13    39    1
    26    14    15    1
    27    17    18   ar
    28    17    40    1
    29    18    19   ar
    30    19    20   ar
    31    19    21    1
    32    21    22    1
    33    21    41    1
    34    22    27   ar
    35    22    23   ar
    36    23    24   ar
    37    23    42    1
    38    24    25   ar
    39    24    43    1
    40    25    26   ar
    41    25    28    1
    42    26    27   ar
    43    26    44    1
    44    27    45    1
    45    28    29    1
    46    29    30    1
    47    29    46    1
    48    29    47    1
    49    30    48    1
    50    30    49    1
    51    30    56    1
    52    31    50    1
    53    31    51    1
    54    31    52    1
    55    31    56    1
    56    32    53    1
    57    32    54    1
    58    32    55    1
    59    32    56    1
    60    56    57    1
@<TRIPOS>MOLECULE
ZINC03815491
 64 68 0 0 0
SMALL
USER_CHARGES

@<TRIPOS>ATOM
      1 C1         12.3286    9.7168   14.0349 C.3     1  <0>1        0.0167
      2 N1         11.7642    9.0215   15.1943 N.ar    1  <0>1       -0.2953
      3 C2         10.8213    9.6484   15.9692 C.ar    1  <0>1        0.1482
      4 C3         10.2673    8.9927   17.0900 C.ar    1  <0>1        0.0365
      5 C4         10.6805    7.6826   17.4235 C.ar    1  <0>1       -0.0366
      6 C5         11.6216    7.0648   16.6442 C.ar    1  <0>1        0.0502
      7 C6         12.1760    7.7734   15.4886 C.ar    1  <0>1        0.2604
      8 O1         13.0134    7.2309   14.7898 O.2     1  <0>1       -0.2670
      9 C7         12.0751    5.6918   16.9671 C.ar    1  <0>1        0.0239
     10 C8         13.1678    5.4955   17.8126 C.ar    1  <0>1        0.0502
     11 C9         13.5824    4.2129   18.1135 C.ar    1  <0>1       -0.0427
     12 C10        12.9234    3.1245   17.5707 C.ar    1  <0>1       -0.0590
     13 C11        11.8429    3.3123   16.7277 C.ar    1  <0>1       -0.0427
     14 C12        11.4151    4.5896   16.4227 C.ar    1  <0>1        0.0502
     15 Cl1        10.0595    4.8233   15.3636 Cl      1  <0>1       -0.0829
     16 Cl2        14.0003    6.8602   18.4896 Cl      1  <0>1       -0.0829
     17 C13         9.3056    9.6687   17.8556 C.ar    1  <0>1        0.0418
     18 N2          8.9575   10.8904   17.4973 N.ar    1  <0>1       -0.2219
     19 C14         9.5002   11.4766   16.4357 C.ar    1  <0>1        0.2214
     20 N3         10.4075   10.8770   15.6800 N.ar    1  <0>1       -0.1961
     21 N4          9.0994   12.7565   16.1049 N.pl3   1  <0>1       -0.2836
     22 C15         8.2207   13.4536   16.9432 C.ar    1  <0>1        0.0338
     23 C16         8.2628   13.2510   18.3163 C.ar    1  <0>1       -0.0370
     24 C17         7.3962   13.9392   19.1424 C.ar    1  <0>1       -0.0182
     25 C18         6.4841   14.8331   18.6008 C.ar    1  <0>1        0.1209
     26 C19         6.4414   15.0361   17.2292 C.ar    1  <0>1       -0.0182
     27 C20         7.3070   14.3483   16.4018 C.ar    1  <0>1       -0.0370
     28 O2          5.6311   15.5104   19.4149 O.3     1  <0>1       -0.4867
     29 C21         4.7183   16.4149   18.7897 C.3     1  <0>1        0.1291
     30 C22         3.8466   17.0788   19.8573 C.3     1  <0>1        0.0031
     31 C23         4.0165   18.1888   22.0021 C.3     1  <0>1       -0.0318
     32 C24         4.9738   18.9372   22.9321 C.3     1  <0>1       -0.0123
     33 C25         5.4009   20.2494   22.2685 C.3     1  <0>1       -0.0434
     34 C26         6.0523   19.9406   20.9175 C.3     1  <0>1       -0.0123
     35 C27         5.0636   19.1630   20.0459 C.3     1  <0>1       -0.0318
     36 H1         13.2131   10.2752   14.3412 H       1  <0>1        0.0457
     37 H2         12.6049    8.9877   13.2731 H       1  <0>1        0.0457
     38 H3         11.5877   10.4047   13.6276 H       1  <0>1        0.0457
     39 H4         10.2596    7.1764   18.2796 H       1  <0>1        0.0633
     40 H5         14.4257    4.0594   18.7706 H       1  <0>1        0.0632
     41 H6         13.2543    2.1236   17.8059 H       1  <0>1        0.0618
     42 H7         11.3329    2.4584   16.3069 H       1  <0>1        0.0632
     43 H8          8.8592    9.1993   18.7198 H       1  <0>1        0.0838
     44 H9          9.4265   13.1723   15.2919 H       1  <0>1        0.1550
     45 H10         8.9761   12.5587   18.7385 H       1  <0>1        0.0637
     46 H11         7.4288   13.7817   20.2103 H       1  <0>1        0.0655
     47 H12         5.7307   15.7320   16.8084 H       1  <0>1        0.0655
     48 H13         7.2734   14.5062   15.3340 H       1  <0>1        0.0637
     49 H14         5.2770   17.1794   18.2498 H       1  <0>1        0.0751
     50 H15         4.0848   15.8673   18.0921 H       1  <0>1        0.0751
     51 H16         3.0905   17.6986   19.3753 H       1  <0>1        0.0848
     52 H17         3.3583   16.3107   20.4570 H       1  <0>1        0.0848
     53 H18         3.1308   18.7991   21.8249 H       1  <0>1        0.0814
     54 H19         3.7217   17.2473   22.4656 H       1  <0>1        0.0814
     55 H20         5.8535   18.3217   23.1207 H       1  <0>1        0.0317
     56 H21         4.4717   19.1531   23.8753 H       1  <0>1        0.0317
     57 H22         6.1166   20.7652   22.9085 H       1  <0>1        0.0269
     58 H23         4.5269   20.8825   22.1153 H       1  <0>1        0.0269
     59 H24         6.9488   19.3409   21.0745 H       1  <0>1        0.0317
     60 H25         6.3199   20.8733   20.4210 H       1  <0>1        0.0317
     61 H26         5.5293   18.9292   19.0886 H       1  <0>1        0.0814
     62 H27         4.1731   19.7689   19.8781 H       1  <0>1        0.0814
     63 N5          4.7113   17.9004   20.7293 N.4     1  <0>1        0.2376
     64 H28         5.5727   17.3793   20.9308 H       1  <0>1        0.2034
@<TRIPOS>BOND
     1     1     2    1
     2     1    36    1
     3     1    37    1
     4     1    38    1
     5     2     7   ar
     6     2     3   ar
     7     3    20   ar
     8     3     4   ar
     9     4     5   ar
    10     4    17   ar
    11     5     6   ar
    12     5    39    1
    13     6     7   ar
    14     6     9    1
    15     7     8    2
    16     9    14   ar
    17     9    10   ar
    18    10    11   ar
    19    10    16    1
    20    11    12   ar
    21    11    40    1
    22    12    13   ar
    23    12    41    1
    24    13    14   ar
    25    13    42    1
    26    14    15    1
    27    17    18   ar
    28    17    43    1
    29    18    19   ar
    30    19    20   ar
    31    19    21    1
    32    21    22    1
    33    21    44    1
    34    22    27   ar
    35    22    23   ar
    36    23    24   ar
    37    23    45    1
    38    24    25   ar
    39    24    46    1
    40    25    26   ar
    41    25    28    1
    42    26    27   ar
    43    26    47    1
    44    27    48    1
    45    28    29    1
    46    29    30    1
    47    29    49    1
    48    29    50    1
    49    30    51    1
    50    30    52    1
    51    30    63    1
    52    31    32    1
    53    31    53    1
    54    31    54    1
    55    31    63    1
    56    32    33    1
    57    32    55    1
    58    32    56    1
    59    33    34    1
    60    33    57    1
    61    33    58    1
    62    34    35    1
    63    34    59    1
    64    34    60    1
    65    35    61    1
    66    35    62    1
    67    35    63    1
    68    63    64    1
@<TRIPOS>MOLECULE
ZINC03815492
 66 69 0 0 0
SMALL
USER_CHARGES

@<TRIPOS>ATOM
      1 C1          3.2386   17.4513   22.5991 C.3     1  <0>1       -0.0244
      2 C2          3.8000   18.5599   21.7064 C.3     1  <0>1       -0.0331
      3 N1          4.6302   17.9650   20.6506 N.4     1  <0>1        0.2432
      4 C3          5.1692   19.0293   19.7935 C.3     1  <0>1       -0.0412
      5 C4          5.7389   17.2194   21.2612 C.3     1  <0>1       -0.0331
      6 C5          6.4925   18.1305   22.2323 C.3     1  <0>1       -0.0244
      7 C6          3.8128   17.0513   19.8413 C.3     1  <0>1        0.0046
      8 C7          4.6897   16.3902   18.7760 C.3     1  <0>1        0.1292
      9 O1          5.6085   15.4941   19.4045 O.3     1  <0>1       -0.4867
     10 C8          6.4667   14.8203   18.5929 C.ar    1  <0>1        0.1209
     11 C9          7.3847   13.9345   19.1376 C.ar    1  <0>1       -0.0182
     12 C10         8.2572   13.2505   18.3142 C.ar    1  <0>1       -0.0370
     13 C11         8.2149   13.4493   16.9405 C.ar    1  <0>1        0.0338
     14 C12         7.2952   14.3359   16.3959 C.ar    1  <0>1       -0.0370
     15 C13         6.4237   15.0194   17.2208 C.ar    1  <0>1       -0.0182
     16 N2          9.0994   12.7565   16.1048 N.pl3   1  <0>1       -0.2836
     17 C14         9.4855   11.4691   16.4236 C.ar    1  <0>1        0.2214
     18 N3          8.9154   10.8686   17.4630 N.ar    1  <0>1       -0.2219
     19 C15         9.2487    9.6397   17.8092 C.ar    1  <0>1        0.0418
     20 C16        10.2244    8.9705   17.0545 C.ar    1  <0>1        0.0365
     21 C17        10.6228    7.6529   17.3761 C.ar    1  <0>1       -0.0366
     22 C18        11.5785    7.0425   16.6088 C.ar    1  <0>1        0.0502
     23 C19        12.1629    7.7666   15.4778 C.ar    1  <0>1        0.2604
     24 O2         13.0135    7.2310   14.7897 O.2     1  <0>1       -0.2670
     25 N4         11.7641    9.0215   15.1944 N.ar    1  <0>1       -0.2953
     26 C20        10.8070    9.6410   15.9578 C.ar    1  <0>1        0.1482
     27 N5         10.4062   10.8766   15.6790 N.ar    1  <0>1       -0.1961
     28 C21        12.3581    9.7321   14.0593 C.3     1  <0>1        0.0167
     29 C22        12.0179    5.6624   16.9201 C.ar    1  <0>1        0.0239
     30 C23        13.0897    5.4471   17.7873 C.ar    1  <0>1        0.0502
     31 C24        13.4916    4.1578   18.0769 C.ar    1  <0>1       -0.0427
     32 C25        12.8402    3.0815   17.5017 C.ar    1  <0>1       -0.0590
     33 C26        11.7804    3.2882   16.6371 C.ar    1  <0>1       -0.0427
     34 C27        11.3655    4.5722   16.3430 C.ar    1  <0>1        0.0502
     35 Cl1        10.0356    4.8295   15.2573 Cl      1  <0>1       -0.0829
     36 Cl2        13.9128    6.7966   18.5050 Cl      1  <0>1       -0.0829
     37 H1          2.6321   16.7733   21.9986 H       1  <0>1        0.0281
     38 H2          4.0613   16.8982   23.0522 H       1  <0>1        0.0281
     39 H3          2.6225   17.8927   23.3825 H       1  <0>1        0.0281
     40 H4          4.4065   19.2378   22.3069 H       1  <0>1        0.0812
     41 H5          2.9772   19.1131   21.2533 H       1  <0>1        0.0812
     42 H6          4.3474   19.6124   19.3779 H       1  <0>1        0.0778
     43 H7          5.8140   19.6800   20.3842 H       1  <0>1        0.0778
     44 H8          5.7461   18.5853   18.9823 H       1  <0>1        0.0778
     45 H9          5.3441   16.3593   21.8021 H       1  <0>1        0.0812
     46 H10         6.4195   16.8771   20.4817 H       1  <0>1        0.0812
     47 H11         6.8873   18.9905   21.6914 H       1  <0>1        0.0281
     48 H12         5.8120   18.4727   23.0118 H       1  <0>1        0.0281
     49 H13         7.3152   17.5773   22.6853 H       1  <0>1        0.0281
     50 H14         3.0130   17.6117   19.3569 H       1  <0>1        0.0849
     51 H15         3.3811   16.2841   20.4840 H       1  <0>1        0.0849
     52 H16         5.2432   17.1570   18.2340 H       1  <0>1        0.0751
     53 H17         4.0602   15.8360   18.0799 H       1  <0>1        0.0751
     54 H18         7.4175   13.7800   20.2060 H       1  <0>1        0.0655
     55 H19         8.9751   12.5645   18.7388 H       1  <0>1        0.0637
     56 H20         7.2614   14.4907   15.3276 H       1  <0>1        0.0637
     57 H21         5.7085   15.7090   16.7974 H       1  <0>1        0.0655
     58 H22         9.4411   13.1807   15.3022 H       1  <0>1        0.1550
     59 H23         8.7801    9.1589   18.6552 H       1  <0>1        0.0838
     60 H24        10.1803    7.1356   18.2145 H       1  <0>1        0.0633
     61 H25        13.2384   10.2807   14.3944 H       1  <0>1        0.0457
     62 H26        12.6480    9.0138   13.2924 H       1  <0>1        0.0457
     63 H27        11.6300   10.4304   13.6465 H       1  <0>1        0.0457
     64 H28        14.3183    3.9896   18.7511 H       1  <0>1        0.0632
     65 H29        13.1608    2.0754   17.7284 H       1  <0>1        0.0618
     66 H30        11.2765    2.4436   16.1908 H       1  <0>1        0.0632
@<TRIPOS>BOND
     1     1     2    1
     2     1    37    1
     3     1    38    1
     4     1    39    1
     5     2     3    1
     6     2    40    1
     7     2    41    1
     8     3     4    1
     9     3     5    1
    10     3     7    1
    11     4    42    1
    12     4    43    1
    13     4    44    1
    14     5     6    1
    15     5    45    1
    16     5    46    1
    17     6    47    1
    18     6    48    1
    19     6    49    1
    20     7     8    1
    21     7    50    1
    22     7    51    1
    23     8     9    1
    24     8    52    1
    25     8    53    1
    26     9    10    1
    27    10    15   ar
    28    10    11   ar
    29    11    12   ar
    30    11    54    1
    31    12    13   ar
    32    12    55    1
    33    13    14   ar
    34    13    16    1
    35    14    15   ar
    36    14    56    1
    37    15    57    1
    38    16    17    1
    39    16    58    1
    40    17    27   ar
    41    17    18   ar
    42    18    19   ar
    43    19    20   ar
    44    19    59    1
    45    20    26   ar
    46    20    21   ar
    47    21    22   ar
    48    21    60    1
    49    22    23   ar
    50    22    29    1
    51    23    24    2
    52    23    25   ar
    53    25    26   ar
    54    25    28    1
    55    26    27   ar
    56    28    61    1
    57    28    62    1
    58    28    63    1
    59    29    34   ar
    60    29    30   ar
    61    30    31   ar
    62    30    36    1
    63    31    32   ar
    64    31    64    1
    65    32    33   ar
    66    32    65    1
    67    33    34   ar
    68    33    66    1
    69    34    35    1
@<TRIPOS>MOLECULE
ZINC03815493
 60 64 0 0 0
SMALL
USER_CHARGES

@<TRIPOS>ATOM
      1 C1         13.4198    7.6681   15.9834 C.3     1  <0>1        0.0153
      2 N1         13.3451    6.4548   15.1658 N.ar    1  <0>1       -0.3105
      3 C2         12.3494    6.3261   14.2248 C.ar    1  <0>1        0.0564
      4 C3         11.4084    7.3311   14.0346 C.ar    1  <0>1        0.0026
      5 C4         10.4233    7.1538   13.0733 C.ar    1  <0>1        0.1248
      6 N2         10.3637    6.0453   12.3425 N.ar    1  <0>1       -0.2395
      7 C5         11.2328    5.0680   12.4797 C.ar    1  <0>1        0.0388
      8 C6         12.2599    5.1643   13.4271 C.ar    1  <0>1        0.0175
      9 C7         13.2003    4.1203   13.5924 C.ar    1  <0>1       -0.0382
     10 C8         14.1876    4.2558   14.5303 C.ar    1  <0>1        0.0501
     11 C9         14.2517    5.4736   15.3415 C.ar    1  <0>1        0.2593
     12 O1         15.1282    5.5999   16.1780 O.2     1  <0>1       -0.2670
     13 C10        15.1847    3.1774   14.7241 C.ar    1  <0>1        0.0239
     14 C11        14.9441    2.1579   15.6460 C.ar    1  <0>1        0.0502
     15 C12        15.8758    1.1529   15.8184 C.ar    1  <0>1       -0.0427
     16 C13        17.0500    1.1614   15.0873 C.ar    1  <0>1       -0.0590
     17 C14        17.2971    2.1720   14.1756 C.ar    1  <0>1       -0.0427
     18 C15        16.3714    3.1800   13.9898 C.ar    1  <0>1        0.0502
     19 Cl1        16.6836    4.4476   12.8455 Cl      1  <0>1       -0.0829
     20 Cl2        13.4741    2.1491   16.5694 Cl      1  <0>1       -0.0829
     21 N3          9.4788    8.1508   12.8752 N.pl3   1  <0>1       -0.2994
     22 C16         9.4189    9.2424   13.7501 C.ar    1  <0>1        0.0325
     23 C17         9.2455   10.5257   13.2484 C.ar    1  <0>1       -0.0388
     24 C18         9.1860   11.6020   14.1113 C.ar    1  <0>1       -0.0389
     25 C19         9.2996   11.4013   15.4807 C.ar    1  <0>1        0.0301
     26 C20         9.4788   10.1187   15.9820 C.ar    1  <0>1       -0.0389
     27 C21         9.5326    9.0417   15.1196 C.ar    1  <0>1       -0.0388
     28 N4          9.2394   12.4923   16.3552 N.pl3   1  <0>1       -0.3198
     29 C22         9.3805   12.0564   17.7515 C.3     1  <0>1        0.0525
     30 C23         9.3892   13.2825   18.6676 C.3     1  <0>1       -0.0160
     31 C24         8.0035   14.4766   17.0824 C.3     1  <0>1       -0.0160
     32 C25         7.9948   13.2505   16.1664 C.3     1  <0>1        0.0525
     33 C26         8.0821   15.1863   19.3968 C.3     1  <0>1       -0.0430
     34 H1         12.8298    7.5323   16.8898 H       1  <0>1        0.0457
     35 H2         14.4583    7.8621   16.2516 H       1  <0>1        0.0457
     36 H3         13.0269    8.5126   15.4172 H       1  <0>1        0.0457
     37 H4         11.4434    8.2350   14.6248 H       1  <0>1        0.0673
     38 H5         11.1517    4.1855   11.8625 H       1  <0>1        0.0837
     39 H6         13.1396    3.2281   12.9867 H       1  <0>1        0.0632
     40 H7         15.6887    0.3608   16.5284 H       1  <0>1        0.0632
     41 H8         17.7773    0.3756   15.2292 H       1  <0>1        0.0618
     42 H9         18.2156    2.1726   13.6077 H       1  <0>1        0.0632
     43 H10         8.8600    8.0915   12.1305 H       1  <0>1        0.1536
     44 H11         9.1567   10.6818   12.1836 H       1  <0>1        0.0637
     45 H12         9.0507   12.6000   13.7211 H       1  <0>1        0.0637
     46 H13         9.5720    9.9631   17.0467 H       1  <0>1        0.0637
     47 H14         9.6672    8.0437   15.5098 H       1  <0>1        0.0637
     48 H15        10.3154   11.5083   17.8687 H       1  <0>1        0.0516
     49 H16         8.5439   11.4101   18.0171 H       1  <0>1        0.0516
     50 H17         9.4647   12.9601   19.7060 H       1  <0>1        0.0830
     51 H18        10.2418   13.9151   18.4203 H       1  <0>1        0.0830
     52 H19         8.8401   15.1228   16.8169 H       1  <0>1        0.0830
     53 H20         7.0688   15.0248   16.9650 H       1  <0>1        0.0830
     54 H21         7.9193   13.5729   15.1279 H       1  <0>1        0.0516
     55 H22         7.1424   12.6176   16.4136 H       1  <0>1        0.0516
     56 H23         8.9271   15.8488   19.2094 H       1  <0>1        0.0778
     57 H24         7.1513   15.7302   19.2360 H       1  <0>1        0.0778
     58 H25         8.1213   14.8296   20.4260 H       1  <0>1        0.0778
     59 N5          8.1237   14.0235   18.4844 N.4     1  <0>1        0.2353
     60 H26         7.3374   13.4002   18.7024 H       1  <0>1        0.2032
@<TRIPOS>BOND
     1     1     2    1
     2     1    34    1
     3     1    35    1
     4     1    36    1
     5     2    11   ar
     6     2     3   ar
     7     3     8   ar
     8     3     4   ar
     9     4     5   ar
    10     4    37    1
    11     5     6   ar
    12     5    21    1
    13     6     7   ar
    14     7     8   ar
    15     7    38    1
    16     8     9   ar
    17     9    10   ar
    18     9    39    1
    19    10    11   ar
    20    10    13    1
    21    11    12    2
    22    13    18   ar
    23    13    14   ar
    24    14    15   ar
    25    14    20    1
    26    15    16   ar
    27    15    40    1
    28    16    17   ar
    29    16    41    1
    30    17    18   ar
    31    17    42    1
    32    18    19    1
    33    21    22    1
    34    21    43    1
    35    22    27   ar
    36    22    23   ar
    37    23    24   ar
    38    23    44    1
    39    24    25   ar
    40    24    45    1
    41    25    26   ar
    42    25    28    1
    43    26    27   ar
    44    26    46    1
    45    27    47    1
    46    28    32    1
    47    28    29    1
    48    29    30    1
    49    29    48    1
    50    29    49    1
    51    30    50    1
    52    30    51    1
    53    30    59    1
    54    31    32    1
    55    31    52    1
    56    31    53    1
    57    31    59    1
    58    32    54    1
    59    32    55    1
    60    33    56    1
    61    33    57    1
    62    33    58    1
    63    33    59    1
    64    59    60    1
@<TRIPOS>MOLECULE
ZINC03815495
 60 63 0 0 0
SMALL
USER_CHARGES

@<TRIPOS>ATOM
      1 C1          5.8485   19.3995   16.8071 C.3     1  <0>1       -0.0244
      2 C2          4.8146   18.3779   17.2848 C.3     1  <0>1       -0.0315
      3 C3          5.4318   18.4232   19.6257 C.3     1  <0>1       -0.0315
      4 C4          6.4355   17.8055   20.6013 C.3     1  <0>1       -0.0244
      5 C5          4.5969   16.3786   18.6331 C.3     1  <0>1        0.1169
      6 O1          5.4255   15.4069   19.2744 O.3     1  <0>1       -0.4543
      7 C6          6.3286   14.7546   18.4947 C.ar    1  <0>1        0.1264
      8 C7          7.2217   13.8610   19.0678 C.ar    1  <0>1       -0.0180
      9 C8          8.1398   13.1988   18.2768 C.ar    1  <0>1       -0.0370
     10 C9          8.1685   13.4272   16.9074 C.ar    1  <0>1        0.0338
     11 C10         7.2739   14.3215   16.3344 C.ar    1  <0>1       -0.0370
     12 C11         6.3567   14.9832   17.1268 C.ar    1  <0>1       -0.0180
     13 N1          9.0994   12.7565   16.1048 N.pl3   1  <0>1       -0.2836
     14 C12         9.4849   11.4687   16.4231 C.ar    1  <0>1        0.2214
     15 N2          8.9137   10.8678   17.4616 N.ar    1  <0>1       -0.2219
     16 C13         9.2464    9.6386   17.8073 C.ar    1  <0>1        0.0418
     17 C14        10.2226    8.9696   17.0531 C.ar    1  <0>1        0.0365
     18 C15        10.6204    7.6517   17.3741 C.ar    1  <0>1       -0.0366
     19 C16        11.5768    7.0417   16.6073 C.ar    1  <0>1        0.0502
     20 C17        12.1623    7.7663   15.4774 C.ar    1  <0>1        0.2604
     21 O2         13.0135    7.2310   14.7898 O.2     1  <0>1       -0.2670
     22 N3         11.7641    9.0215   15.1944 N.ar    1  <0>1       -0.2953
     23 C18        10.8065    9.6407   15.9573 C.ar    1  <0>1        0.1482
     24 N4         10.4061   10.8765   15.6790 N.ar    1  <0>1       -0.1961
     25 C19        12.3594    9.7327   14.0603 C.3     1  <0>1        0.0167
     26 C20        12.0155    5.6612   16.9182 C.ar    1  <0>1        0.0239
     27 C21        13.0865    5.4451   17.7863 C.ar    1  <0>1        0.0502
     28 C22        13.4878    4.1555   18.0753 C.ar    1  <0>1       -0.0427
     29 C23        12.8368    3.0798   17.4989 C.ar    1  <0>1       -0.0590
     30 C24        11.7777    3.2872   16.6334 C.ar    1  <0>1       -0.0427
     31 C25        11.3634    4.5716   16.3397 C.ar    1  <0>1        0.0502
     32 Cl1        10.0346    4.8299   15.2529 Cl      1  <0>1       -0.0829
     33 Cl2        13.9092    6.7941   18.5056 Cl      1  <0>1       -0.0829
     34 H1          6.1176   20.0577   17.6332 H       1  <0>1        0.0281
     35 H2          6.7381   18.8780   16.4536 H       1  <0>1        0.0281
     36 H3          5.4267   19.9904   15.9942 H       1  <0>1        0.0281
     37 H4          4.5668   17.7019   16.4664 H       1  <0>1        0.0813
     38 H5          3.9143   18.8981   17.6118 H       1  <0>1        0.0813
     39 H6          5.7483   19.4345   19.3706 H       1  <0>1        0.0813
     40 H7          4.4467   18.4572   20.0909 H       1  <0>1        0.0813
     41 H8          6.4498   18.3859   21.5239 H       1  <0>1        0.0281
     42 H9          6.1428   16.7791   20.8224 H       1  <0>1        0.0281
     43 H10         7.4289   17.8115   20.1529 H       1  <0>1        0.0281
     44 H11         4.2494   15.9858   17.6775 H       1  <0>1        0.1300
     45 H12         3.7393   16.6008   19.2681 H       1  <0>1        0.1300
     46 H13         7.1992   13.6835   20.1328 H       1  <0>1        0.0655
     47 H14         8.8381   12.5068   18.7239 H       1  <0>1        0.0637
     48 H15         7.2954   14.4995   15.2694 H       1  <0>1        0.0637
     49 H16         5.6609   15.6787   16.6814 H       1  <0>1        0.0655
     50 H17         9.4735   13.1961   15.3253 H       1  <0>1        0.1550
     51 H18         8.7770    9.1574   18.6525 H       1  <0>1        0.0838
     52 H19        10.1769    7.1340   18.2118 H       1  <0>1        0.0633
     53 H20        13.2394   10.2810   14.3966 H       1  <0>1        0.0457
     54 H21        12.6498    9.0148   13.2932 H       1  <0>1        0.0457
     55 H22        11.6318   10.4314   13.6473 H       1  <0>1        0.0457
     56 H23        14.3139    3.9867   18.7502 H       1  <0>1        0.0632
     57 H24        13.1569    2.0734   17.7252 H       1  <0>1        0.0618
     58 H25        11.2741    2.4431   16.1861 H       1  <0>1        0.0632
     59 N5          5.3961   17.5996   18.3988 N.4     1  <0>1        0.2633
     60 H26         6.3549   17.3283   18.1512 H       1  <0>1        0.2070
@<TRIPOS>BOND
     1     1     2    1
     2     1    34    1
     3     1    35    1
     4     1    36    1
     5     2    37    1
     6     2    38    1
     7     2    59    1
     8     3     4    1
     9     3    39    1
    10     3    40    1
    11     3    59    1
    12     4    41    1
    13     4    42    1
    14     4    43    1
    15     5     6    1
    16     5    44    1
    17     5    45    1
    18     5    59    1
    19     6     7    1
    20     7    12   ar
    21     7     8   ar
    22     8     9   ar
    23     8    46    1
    24     9    10   ar
    25     9    47    1
    26    10    11   ar
    27    10    13    1
    28    11    12   ar
    29    11    48    1
    30    12    49    1
    31    13    14    1
    32    13    50    1
    33    14    24   ar
    34    14    15   ar
    35    15    16   ar
    36    16    17   ar
    37    16    51    1
    38    17    23   ar
    39    17    18   ar
    40    18    19   ar
    41    18    52    1
    42    19    20   ar
    43    19    26    1
    44    20    21    2
    45    20    22   ar
    46    22    23   ar
    47    22    25    1
    48    23    24   ar
    49    25    53    1
    50    25    54    1
    51    25    55    1
    52    26    31   ar
    53    26    27   ar
    54    27    28   ar
    55    27    33    1
    56    28    29   ar
    57    28    56    1
    58    29    30   ar
    59    29    57    1
    60    30    31   ar
    61    30    58    1
    62    31    32    1
    63    59    60    1
@<TRIPOS>MOLECULE
ZINC03815496
 64 67 0 0 0
SMALL
USER_CHARGES

@<TRIPOS>ATOM
      1 C1          2.6426   19.3358   21.0325 C.3     1  <0>1       -0.0233
      2 C2          3.8062   18.5918   21.6906 C.3     1  <0>1       -0.0019
      3 N1          4.6402   17.9711   20.6527 N.4     1  <0>1        0.4025
      4 C3          5.7346   17.2235   21.2862 C.3     1  <0>1       -0.0019
      5 C4          6.4970   18.1454   22.2399 C.3     1  <0>1       -0.0233
      6 C5          3.8207   17.0535   19.8499 C.3     1  <0>1        0.0358
      7 C6          4.6941   16.3904   18.7831 C.3     1  <0>1        0.1303
      8 O1          5.6179   15.4987   19.4105 O.3     1  <0>1       -0.4867
      9 C7          6.4738   14.8238   18.5974 C.ar    1  <0>1        0.1209
     10 C8          7.3964   13.9421   19.1412 C.ar    1  <0>1       -0.0182
     11 C9          8.2665   13.2571   18.3162 C.ar    1  <0>1       -0.0370
     12 C10         8.2172   13.4505   16.9420 C.ar    1  <0>1        0.0338
     13 C11         7.2930   14.3329   16.3985 C.ar    1  <0>1       -0.0370
     14 C12         6.4239   15.0176   17.2248 C.ar    1  <0>1       -0.0182
     15 N2          9.0994   12.7565   16.1048 N.pl3   1  <0>1       -0.2836
     16 C13         9.4862   11.4694   16.4241 C.ar    1  <0>1        0.2214
     17 N3          8.9171   10.8695   17.4644 N.ar    1  <0>1       -0.2219
     18 C14         9.2510    9.6409   17.8112 C.ar    1  <0>1        0.0418
     19 C15        10.2261    8.9714   17.0560 C.ar    1  <0>1        0.0365
     20 C16        10.6251    7.6541   17.3780 C.ar    1  <0>1       -0.0366
     21 C17        11.5803    7.0435   16.6102 C.ar    1  <0>1        0.0502
     22 C18        12.1635    7.7668   15.4783 C.ar    1  <0>1        0.2604
     23 O2         13.0134    7.2310   14.7897 O.2     1  <0>1       -0.2670
     24 N4         11.7641    9.0215   15.1944 N.ar    1  <0>1       -0.2953
     25 C19        10.8076    9.6413   15.9583 C.ar    1  <0>1        0.1482
     26 N5         10.4062   10.8766   15.6790 N.ar    1  <0>1       -0.1961
     27 C20        12.3569    9.7315   14.0583 C.3     1  <0>1        0.0167
     28 C21        12.0203    5.6635   16.9222 C.ar    1  <0>1        0.0239
     29 C22        13.0930    5.4491   17.7885 C.ar    1  <0>1        0.0502
     30 C23        13.4954    4.1601   18.0784 C.ar    1  <0>1       -0.0427
     31 C24        12.8438    3.0832   17.5046 C.ar    1  <0>1       -0.0590
     32 C25        11.7831    3.2891   16.6409 C.ar    1  <0>1       -0.0427
     33 C26        11.3675    4.5729   16.3464 C.ar    1  <0>1        0.0502
     34 Cl1        10.0366    4.8291   15.2616 Cl      1  <0>1       -0.0829
     35 Cl2        13.9164    6.7993   18.5045 Cl      1  <0>1       -0.0829
     36 O3          5.1969   19.0114   19.7877 O.3     1  <0>1       -0.3399
     37 H1          3.0313   20.0429   20.2997 H       1  <0>1        0.0281
     38 H2          1.9884   18.6199   20.5350 H       1  <0>1        0.0281
     39 H3          2.0788   19.8748   21.7939 H       1  <0>1        0.0281
     40 H4          3.4154   17.8193   22.3528 H       1  <0>1        0.0823
     41 H5          4.4072   19.2949   22.2674 H       1  <0>1        0.0823
     42 H6          5.3243   16.3821   21.8446 H       1  <0>1        0.0823
     43 H7          6.4138   16.8533   20.5182 H       1  <0>1        0.0823
     44 H8          7.3090   17.5906   22.7100 H       1  <0>1        0.0281
     45 H9          6.9073   18.9867   21.6815 H       1  <0>1        0.0281
     46 H10         5.8177   18.5156   23.0079 H       1  <0>1        0.0281
     47 H11         3.0180   17.6111   19.3672 H       1  <0>1        0.0859
     48 H12         3.3931   16.2877   20.4969 H       1  <0>1        0.0859
     49 H13         5.2434   17.1563   18.2355 H       1  <0>1        0.0751
     50 H14         4.0627   15.8321   18.0920 H       1  <0>1        0.0751
     51 H15         7.4346   13.7919   20.2100 H       1  <0>1        0.0655
     52 H16         8.9881   12.5743   18.7401 H       1  <0>1        0.0637
     53 H17         7.2538   14.4836   15.3298 H       1  <0>1        0.0637
     54 H18         5.7050   15.7039   16.8022 H       1  <0>1        0.0655
     55 H19         9.4390   13.1796   15.3008 H       1  <0>1        0.1550
     56 H20         8.7833    9.1606   18.6579 H       1  <0>1        0.0838
     57 H21        10.1835    7.1373   18.2173 H       1  <0>1        0.0633
     58 H22        13.2373   10.2805   14.3922 H       1  <0>1        0.0457
     59 H23        12.6461    9.0127   13.2915 H       1  <0>1        0.0457
     60 H24        11.6283   10.4293   13.6457 H       1  <0>1        0.0457
     61 H25        14.3228    3.9925   18.7520 H       1  <0>1        0.0632
     62 H26        13.1648    2.0774   17.7317 H       1  <0>1        0.0618
     63 H27        11.2789    2.4441   16.1957 H       1  <0>1        0.0632
     64 H           5.7380   19.6173   20.3178 H       1  <0>1        0.2696
@<TRIPOS>BOND
     1     1     2    1
     2     1    37    1
     3     1    38    1
     4     1    39    1
     5     2     3    1
     6     2    40    1
     7     2    41    1
     8     3     4    1
     9     3     6    1
    10     3    36    1
    11     4     5    1
    12     4    42    1
    13     4    43    1
    14     5    44    1
    15     5    45    1
    16     5    46    1
    17     6     7    1
    18     6    47    1
    19     6    48    1
    20     7     8    1
    21     7    49    1
    22     7    50    1
    23     8     9    1
    24     9    14   ar
    25     9    10   ar
    26    10    11   ar
    27    10    51    1
    28    11    12   ar
    29    11    52    1
    30    12    13   ar
    31    12    15    1
    32    13    14   ar
    33    13    53    1
    34    14    54    1
    35    15    16    1
    36    15    55    1
    37    16    26   ar
    38    16    17   ar
    39    17    18   ar
    40    18    19   ar
    41    18    56    1
    42    19    25   ar
    43    19    20   ar
    44    20    21   ar
    45    20    57    1
    46    21    22   ar
    47    21    28    1
    48    22    23    2
    49    22    24   ar
    50    24    25   ar
    51    24    27    1
    52    25    26   ar
    53    27    58    1
    54    27    59    1
    55    27    60    1
    56    28    33   ar
    57    28    29   ar
    58    29    30   ar
    59    29    35    1
    60    30    31   ar
    61    30    61    1
    62    31    32   ar
    63    31    62    1
    64    32    33   ar
    65    32    63    1
    66    33    34    1
    67    36    64    1
@<TRIPOS>MOLECULE
ZINC03815497
 63 67 0 0 0
SMALL
USER_CHARGES

@<TRIPOS>ATOM
      1 C1         12.8749   11.8803   14.2088 C.3     1  <0>1        0.0167
      2 N1         11.4706   11.4640   14.1811 N.ar    1  <0>1       -0.2953
      3 C2         11.1467   10.1515   14.4151 C.ar    1  <0>1        0.1482
      4 C3          9.7984    9.7337   14.3921 C.ar    1  <0>1        0.0365
      5 C4          8.7693   10.6660   14.1272 C.ar    1  <0>1       -0.0366
      6 C5          9.1020   11.9737   13.8953 C.ar    1  <0>1        0.0502
      7 C6         10.5105   12.3737   13.9265 C.ar    1  <0>1        0.2604
      8 O1         10.8153   13.5353   13.7217 O.2     1  <0>1       -0.2670
      9 C7          8.0467   12.9750   13.6148 C.ar    1  <0>1        0.0239
     10 C8          7.6441   13.2195   12.3013 C.ar    1  <0>1        0.0502
     11 C9          6.6571   14.1515   12.0470 C.ar    1  <0>1       -0.0427
     12 C10         6.0744   14.8484   13.0901 C.ar    1  <0>1       -0.0590
     13 C11         6.4722   14.6143   14.3940 C.ar    1  <0>1       -0.0427
     14 C12         7.4551   13.6819   14.6624 C.ar    1  <0>1        0.0502
     15 Cl1         7.9539   13.3903   16.2995 Cl      1  <0>1       -0.0829
     16 Cl2         8.3784   12.3502   10.9902 Cl      1  <0>1       -0.0829
     17 C13         9.5100    8.3827   14.6369 C.ar    1  <0>1        0.0418
     18 N2         10.5110    7.5570   14.8788 N.ar    1  <0>1       -0.2219
     19 C14        11.7683    7.9857   14.8926 C.ar    1  <0>1        0.2214
     20 N3         12.0891    9.2514   14.6723 N.ar    1  <0>1       -0.1961
     21 N4         12.7779    7.0786   15.1518 N.pl3   1  <0>1       -0.2836
     22 C15        12.4801    5.7186   15.2789 C.ar    1  <0>1        0.0336
     23 C16        11.4630    5.1548   14.5191 C.ar    1  <0>1       -0.0400
     24 C17        11.1711    3.8111   14.6474 C.ar    1  <0>1       -0.0518
     25 C18        11.8900    3.0270   15.5310 C.ar    1  <0>1       -0.0028
     26 C19        12.8997    3.5863   16.2927 C.ar    1  <0>1       -0.0518
     27 C20        13.2003    4.9283   16.1655 C.ar    1  <0>1       -0.0400
     28 C21        11.5684    1.5612   15.6687 C.3     1  <0>1       -0.0055
     29 C22        12.2674   -0.6510   14.9740 C.3     1  <0>1        0.0098
     30 C23        13.0550   -1.4202   13.9108 C.3     1  <0>1        0.0092
     31 C24        14.5656    0.4559   13.6724 C.3     1  <0>1        0.0092
     32 C25        13.7780    1.2252   14.7357 C.3     1  <0>1        0.0098
     33 C26        15.2646   -1.7565   12.9786 C.3     1  <0>1       -0.0427
     34 H1         13.3020   11.7849   13.2104 H       1  <0>1        0.0457
     35 H2         12.9397   12.9186   14.5340 H       1  <0>1        0.0457
     36 H3         13.4280   11.2471   14.9025 H       1  <0>1        0.0457
     37 H4          7.7363   10.3515   14.1081 H       1  <0>1        0.0633
     38 H5          6.3418   14.3390   11.0311 H       1  <0>1        0.0632
     39 H6          5.3055   15.5789   12.8856 H       1  <0>1        0.0618
     40 H7          6.0136   15.1621   15.2039 H       1  <0>1        0.0632
     41 H8          8.4908    8.0259   14.6280 H       1  <0>1        0.0838
     42 H9         13.6933    7.3855   15.2458 H       1  <0>1        0.1550
     43 H10        10.9010    5.7667   13.8291 H       1  <0>1        0.0636
     44 H11        10.3807    3.3720   14.0568 H       1  <0>1        0.0623
     45 H12        13.4563    2.9722   16.9851 H       1  <0>1        0.0623
     46 H13        13.9919    5.3634   16.7574 H       1  <0>1        0.0636
     47 H14        10.5099    1.4008   15.4641 H       1  <0>1        0.0867
     48 H15        11.7963    1.2329   16.6827 H       1  <0>1        0.0867
     49 H16        11.2199   -0.9504   14.9383 H       1  <0>1        0.0868
     50 H17        12.6755   -0.8725   15.9601 H       1  <0>1        0.0868
     51 H18        13.0010   -2.4885   14.1203 H       1  <0>1        0.0868
     52 H19        12.6292   -1.2206   12.9274 H       1  <0>1        0.0868
     53 H20        15.6130    0.7554   13.7082 H       1  <0>1        0.0868
     54 H21        14.1576    0.6772   12.6862 H       1  <0>1        0.0868
     55 H22        14.2036    1.0252   15.7190 H       1  <0>1        0.0868
     56 H23        13.8323    2.2936   14.5263 H       1  <0>1        0.0868
     57 H24        14.8713   -1.6116   11.9725 H       1  <0>1        0.0778
     58 H25        16.2991   -1.4149   13.0171 H       1  <0>1        0.0778
     59 H26        15.2216   -2.8147   13.2367 H       1  <0>1        0.0778
     60 N5         12.3645    0.7954   14.6859 N.4     1  <0>1        0.2460
     61 H27        11.9943    0.9739   13.7450 H       1  <0>1        0.2041
     62 N6         14.4684   -0.9904   13.9609 N.4     1  <0>1        0.2405
     63 H28        14.8383   -1.1686   14.9020 H       1  <0>1        0.2035
@<TRIPOS>BOND
     1     1     2    1
     2     1    34    1
     3     1    35    1
     4     1    36    1
     5     2     7   ar
     6     2     3   ar
     7     3    20   ar
     8     3     4   ar
     9     4     5   ar
    10     4    17   ar
    11     5     6   ar
    12     5    37    1
    13     6     7   ar
    14     6     9    1
    15     7     8    2
    16     9    14   ar
    17     9    10   ar
    18    10    11   ar
    19    10    16    1
    20    11    12   ar
    21    11    38    1
    22    12    13   ar
    23    12    39    1
    24    13    14   ar
    25    13    40    1
    26    14    15    1
    27    17    18   ar
    28    17    41    1
    29    18    19   ar
    30    19    20   ar
    31    19    21    1
    32    21    22    1
    33    21    42    1
    34    22    27   ar
    35    22    23   ar
    36    23    24   ar
    37    23    43    1
    38    24    25   ar
    39    24    44    1
    40    25    26   ar
    41    25    28    1
    42    26    27   ar
    43    26    45    1
    44    27    46    1
    45    28    47    1
    46    28    48    1
    47    28    60    1
    48    29    30    1
    49    29    49    1
    50    29    50    1
    51    29    60    1
    52    30    51    1
    53    30    52    1
    54    30    62    1
    55    31    32    1
    56    31    53    1
    57    31    54    1
    58    31    62    1
    59    32    55    1
    60    32    56    1
    61    32    60    1
    62    33    57    1
    63    33    58    1
    64    33    59    1
    65    33    62    1
    66    60    61    1
    67    62    63    1
@<TRIPOS>MOLECULE
ZINC03815499
 51 54 0 0 0
SMALL
USER_CHARGES

@<TRIPOS>ATOM
      1 C1         11.4258    9.4829   13.6315 C.3     1  <0>1        0.0167
      2 N1         11.9920    9.4778   14.9827 N.ar    1  <0>1       -0.2953
      3 C2         11.4697   10.3094   15.9409 C.ar    1  <0>1        0.1482
      4 C3         12.0037   10.3168   17.2477 C.ar    1  <0>1        0.0365
      5 C4         13.0825    9.4661   17.5802 C.ar    1  <0>1       -0.0366
      6 C5         13.5965    8.6390   16.6176 C.ar    1  <0>1        0.0502
      7 C6         13.0197    8.6565   15.2717 C.ar    1  <0>1        0.2604
      8 O1         13.4713    7.9242   14.4093 O.2     1  <0>1       -0.2670
      9 C7         14.7270    7.7353   16.9346 C.ar    1  <0>1        0.0239
     10 C8         16.0414    8.1680   16.7560 C.ar    1  <0>1        0.0502
     11 C9         17.0908    7.3218   17.0571 C.ar    1  <0>1       -0.0427
     12 C10        16.8407    6.0448   17.5261 C.ar    1  <0>1       -0.0590
     13 C11        15.5399    5.6079   17.7009 C.ar    1  <0>1       -0.0427
     14 C12        14.4815    6.4456   17.4078 C.ar    1  <0>1        0.0502
     15 Cl1        12.8498    5.8951   17.6267 Cl      1  <0>1       -0.0829
     16 Cl2        16.3573    9.7683   16.1618 Cl      1  <0>1       -0.0829
     17 C13        11.4405   11.1817   18.1980 C.ar    1  <0>1        0.0418
     18 N2         10.4344   11.9536   17.8319 N.ar    1  <0>1       -0.2219
     19 C14         9.9574   11.9199   16.5922 C.ar    1  <0>1        0.2214
     20 N3         10.4526   11.1170   15.6627 N.ar    1  <0>1       -0.1961
     21 N4          8.9026   12.7486   16.2625 N.pl3   1  <0>1       -0.2836
     22 C15         8.4313   13.6851   17.1906 C.ar    1  <0>1        0.0338
     23 C16         9.3152   14.2979   18.0690 C.ar    1  <0>1       -0.0370
     24 C17         8.8497   15.2218   18.9838 C.ar    1  <0>1       -0.0182
     25 C18         7.4997   15.5380   19.0251 C.ar    1  <0>1        0.1209
     26 C19         6.6161   14.9262   18.1479 C.ar    1  <0>1       -0.0182
     27 C20         7.0799   14.0018   17.2329 C.ar    1  <0>1       -0.0370
     28 O2          7.0422   16.4485   19.9255 O.3     1  <0>1       -0.4867
     29 C21         5.6404   16.7260   19.9124 C.3     1  <0>1        0.1290
     30 C22         5.3165   17.7663   20.9866 C.3     1  <0>1       -0.0004
     31 H1         11.9495   10.2186   13.0209 H       1  <0>1        0.0457
     32 H2         11.5392    8.4945   13.1862 H       1  <0>1        0.0457
     33 H3         10.3677    9.7395   13.6819 H       1  <0>1        0.0457
     34 H4         13.4945    9.4675   18.5785 H       1  <0>1        0.0633
     35 H5         18.1086    7.6566   16.9225 H       1  <0>1        0.0632
     36 H6         17.6646    5.3857   17.7564 H       1  <0>1        0.0618
     37 H7         15.3514    4.6096   18.0671 H       1  <0>1        0.0632
     38 H8         11.8219   11.2152   19.2079 H       1  <0>1        0.0838
     39 H9          8.4883   12.6817   15.3879 H       1  <0>1        0.1550
     40 H10        10.3671   14.0555   18.0338 H       1  <0>1        0.0637
     41 H11         9.5369   15.6986   19.6670 H       1  <0>1        0.0655
     42 H12         5.5651   15.1727   18.1810 H       1  <0>1        0.0655
     43 H13         6.3918   13.5254   16.5504 H       1  <0>1        0.0637
     44 H14         5.3558   17.1133   18.9341 H       1  <0>1        0.0751
     45 H15         5.0866   15.8095   20.1156 H       1  <0>1        0.0751
     46 H16         4.2375   17.9127   21.0371 H       1  <0>1        0.0847
     47 H17         5.6814   17.4171   21.9525 H       1  <0>1        0.0847
     48 H18         5.6950   19.3513   19.7283 H       1  <0>1        0.1995
     49 H19         5.7690   19.7429   21.3429 H       1  <0>1        0.1995
     50 N5          5.9921   19.0316   20.6487 N.4     1  <0>1        0.2209
     51 H20         7.0076   18.8799   20.6389 H       1  <0>1        0.1995
@<TRIPOS>BOND
     1     1     2    1
     2     1    31    1
     3     1    32    1
     4     1    33    1
     5     2     7   ar
     6     2     3   ar
     7     3    20   ar
     8     3     4   ar
     9     4     5   ar
    10     4    17   ar
    11     5     6   ar
    12     5    34    1
    13     6     7   ar
    14     6     9    1
    15     7     8    2
    16     9    14   ar
    17     9    10   ar
    18    10    11   ar
    19    10    16    1
    20    11    12   ar
    21    11    35    1
    22    12    13   ar
    23    12    36    1
    24    13    14   ar
    25    13    37    1
    26    14    15    1
    27    17    18   ar
    28    17    38    1
    29    18    19   ar
    30    19    20   ar
    31    19    21    1
    32    21    22    1
    33    21    39    1
    34    22    27   ar
    35    22    23   ar
    36    23    24   ar
    37    23    40    1
    38    24    25   ar
    39    24    41    1
    40    25    26   ar
    41    25    28    1
    42    26    27   ar
    43    26    42    1
    44    27    43    1
    45    28    29    1
    46    29    30    1
    47    29    44    1
    48    29    45    1
    49    30    46    1
    50    30    47    1
    51    30    50    1
    52    48    50    1
    53    49    50    1
    54    50    51    1
@<TRIPOS>MOLECULE
ZINC03815501
 57 60 0 0 0
SMALL
USER_CHARGES

@<TRIPOS>ATOM
      1 C1          4.7171   19.4009   22.6257 C.3     1  <0>1       -0.0245
      2 C2          3.8185   18.5375   21.7380 C.3     1  <0>1       -0.0364
      3 C3          3.8014   17.0477   19.8293 C.3     1  <0>1        0.0013
      4 C4          4.6825   16.3886   18.7662 C.3     1  <0>1        0.1291
      5 O1          5.5969   15.4892   19.3962 O.3     1  <0>1       -0.4867
      6 C5          6.4579   14.8165   18.5867 C.ar    1  <0>1        0.1209
      7 C6          7.3720   13.9276   19.1329 C.ar    1  <0>1       -0.0182
      8 C7          8.2474   13.2449   18.3116 C.ar    1  <0>1       -0.0370
      9 C8          8.2119   13.4481   16.9383 C.ar    1  <0>1        0.0338
     10 C9          7.2962   14.3377   16.3922 C.ar    1  <0>1       -0.0370
     11 C10         6.4219   15.0200   17.2149 C.ar    1  <0>1       -0.0182
     12 N1          9.0994   12.7565   16.1048 N.pl3   1  <0>1       -0.2836
     13 C11         9.4865   11.4696   16.4244 C.ar    1  <0>1        0.2214
     14 N2          8.9184   10.8702   17.4655 N.ar    1  <0>1       -0.2219
     15 C12         9.2527    9.6417   17.8126 C.ar    1  <0>1        0.0418
     16 C13        10.2274    8.9720   17.0572 C.ar    1  <0>1        0.0365
     17 C14        10.6269    7.6551   17.3796 C.ar    1  <0>1       -0.0366
     18 C15        11.5816    7.0442   16.6114 C.ar    1  <0>1        0.0502
     19 C16        12.1638    7.7671   15.4786 C.ar    1  <0>1        0.2604
     20 O2         13.0135    7.2310   14.7897 O.2     1  <0>1       -0.2670
     21 N3         11.7641    9.0215   15.1944 N.ar    1  <0>1       -0.2953
     22 C17        10.8081    9.6415   15.9586 C.ar    1  <0>1        0.1482
     23 N4         10.4062   10.8766   15.6790 N.ar    1  <0>1       -0.1961
     24 C18        12.3560    9.7310   14.0575 C.3     1  <0>1        0.0167
     25 C19        12.0221    5.6645   16.9237 C.ar    1  <0>1        0.0239
     26 C20        13.0955    5.4507   17.7894 C.ar    1  <0>1        0.0502
     27 C21        13.4983    4.1619   18.0798 C.ar    1  <0>1       -0.0427
     28 C22        12.8465    3.0846   17.5070 C.ar    1  <0>1       -0.0590
     29 C23        11.7851    3.2899   16.6439 C.ar    1  <0>1       -0.0427
     30 C24        11.3692    4.5734   16.3489 C.ar    1  <0>1        0.0502
     31 Cl1        10.0374    4.8289   15.2650 Cl      1  <0>1       -0.0829
     32 Cl2        13.9191    6.8014   18.5041 Cl      1  <0>1       -0.0829
     33 H1          4.1129   19.8835   23.3940 H       1  <0>1        0.0281
     34 H2          5.4721   18.7728   23.0985 H       1  <0>1        0.0281
     35 H3          5.2062   20.1614   22.0171 H       1  <0>1        0.0281
     36 H4          3.0634   19.1654   21.2652 H       1  <0>1        0.0811
     37 H5          3.3293   17.7769   22.3466 H       1  <0>1        0.0811
     38 H6          3.0462   17.6654   19.3433 H       1  <0>1        0.0847
     39 H7          3.3121   16.2769   20.4247 H       1  <0>1        0.0847
     40 H8          5.2397   17.1562   18.2292 H       1  <0>1        0.0751
     41 H9          4.0555   15.8375   18.0654 H       1  <0>1        0.0751
     42 H10         7.3994   13.7698   20.2010 H       1  <0>1        0.0655
     43 H11         8.9622   12.5566   18.7375 H       1  <0>1        0.0637
     44 H12         7.2677   14.4959   15.3243 H       1  <0>1        0.0637
     45 H13         5.7096   15.7119   16.7904 H       1  <0>1        0.0655
     46 H14         9.4423   13.1811   15.3029 H       1  <0>1        0.1550
     47 H15         8.7858    9.1618   18.6600 H       1  <0>1        0.0838
     48 H16        10.1860    7.1385   18.2193 H       1  <0>1        0.0633
     49 H17        13.2365   10.2804   14.3905 H       1  <0>1        0.0457
     50 H18        12.6448    9.0119   13.2909 H       1  <0>1        0.0457
     51 H19        11.6269   10.4285   13.6451 H       1  <0>1        0.0457
     52 H20        14.3263    3.9948   18.7528 H       1  <0>1        0.0632
     53 H21        13.1678    2.0789   17.7344 H       1  <0>1        0.0618
     54 H22        11.2808    2.4445   16.1994 H       1  <0>1        0.0632
     55 N5          4.6433   17.8883   20.7016 N.4     1  <0>1        0.2292
     56 H23         5.3546   17.3015   21.1532 H       1  <0>1        0.2014
     57 H24         5.1042   18.6096   20.1345 H       1  <0>1        0.2014
@<TRIPOS>BOND
     1     1     2    1
     2     1    33    1
     3     1    34    1
     4     1    35    1
     5     2    36    1
     6     2    37    1
     7     2    55    1
     8     3     4    1
     9     3    38    1
    10     3    39    1
    11     3    55    1
    12     4     5    1
    13     4    40    1
    14     4    41    1
    15     5     6    1
    16     6    11   ar
    17     6     7   ar
    18     7     8   ar
    19     7    42    1
    20     8     9   ar
    21     8    43    1
    22     9    10   ar
    23     9    12    1
    24    10    11   ar
    25    10    44    1
    26    11    45    1
    27    12    13    1
    28    12    46    1
    29    13    23   ar
    30    13    14   ar
    31    14    15   ar
    32    15    16   ar
    33    15    47    1
    34    16    22   ar
    35    16    17   ar
    36    17    18   ar
    37    17    48    1
    38    18    19   ar
    39    18    25    1
    40    19    20    2
    41    19    21   ar
    42    21    22   ar
    43    21    24    1
    44    22    23   ar
    45    24    49    1
    46    24    50    1
    47    24    51    1
    48    25    30   ar
    49    25    26   ar
    50    26    27   ar
    51    26    32    1
    52    27    28   ar
    53    27    52    1
    54    28    29   ar
    55    28    53    1
    56    29    30   ar
    57    29    54    1
    58    30    31    1
    59    55    56    1
    60    55    57    1
@<TRIPOS>MOLECULE
ZINC03815504
 38 40 0 0 0
SMALL
USER_CHARGES

@<TRIPOS>ATOM
      1 C1          7.6564   10.4977   14.1796 C.3     1  <0>1       -0.0380
      2 C2          8.7876   10.8516   15.1102 C.ar    1  <0>1       -0.0294
      3 C3          9.0676   10.2467   16.2916 C.ar    1  <0>1        0.0053
      4 N1         10.1597   10.8355   16.8407 N.ar    1  <0>1       -0.3606
      5 H1         10.5712   10.5900   17.6840 H       1  <0>1        0.1653
      6 C4         10.5845   11.8432   16.0016 C.ar    1  <0>1        0.0434
      7 C5          9.7314   11.8604   14.9088 C.ar    1  <0>1       -0.0193
      8 C6          9.8087   12.7917   13.7265 C.3     1  <0>1       -0.0154
      9 C7         10.6914   12.1684   12.6432 C.3     1  <0>1        0.0488
     10 C8         10.7687   13.0997   11.4609 C.2     1  <0>1        0.3050
     11 O1         10.1785   14.1538   11.4825 O.2     1  <0>1       -0.2510
     12 C9         11.6875   12.6961   16.2130 C.2     1  <0>1       -0.0253
     13 C10        12.0297   13.0778   17.4962 C.2     1  <0>1        0.0479
     14 C11        13.2341   13.8247   17.9218 C.ar    1  <0>1        0.0094
     15 C12        14.3187   14.3580   17.2326 C.ar    1  <0>1       -0.0381
     16 C13        15.3080   15.0272   17.9257 C.ar    1  <0>1        0.0186
     17 C14        15.2161   15.1719   19.3010 C.ar    1  <0>1       -0.0460
     18 C15        14.1407   14.6523   19.9922 C.ar    1  <0>1       -0.0388
     19 C16        13.1347   13.9752   19.3116 C.ar    1  <0>1        0.0416
     20 N2         11.9663   13.3663   19.7538 N.am    1  <0>1       -0.2809
     21 C17        11.2802   12.8244   18.7332 C.2     1  <0>1        0.2490
     22 O2         10.2219   12.2269   18.8193 O.2     1  <0>1       -0.2698
     23 Br1        16.7900   15.7466   16.9973 Br      1  <0>1       -0.0503
     24 H2          7.9937    9.7443   13.4678 H       1  <0>1        0.0278
     25 H3          6.8204   10.1032   14.7573 H       1  <0>1        0.0278
     26 H4          7.3369   11.3895   13.6404 H       1  <0>1        0.0278
     27 H5          8.5133    9.4265   16.7232 H       1  <0>1        0.0810
     28 H6          8.8077   12.9575   13.3285 H       1  <0>1        0.0319
     29 H7         10.2370   13.7434   14.0409 H       1  <0>1        0.0319
     30 H8         11.6925   12.0025   13.0411 H       1  <0>1        0.0381
     31 H9         10.2631   11.2167   12.3287 H       1  <0>1        0.0381
     32 H10        12.2674   13.0472   15.3723 H       1  <0>1        0.0646
     33 H11        14.3892   14.2447   16.1609 H       1  <0>1        0.0635
     34 H12        15.9935   15.6964   19.8367 H       1  <0>1        0.0629
     35 H13        14.0805   14.7715   21.0639 H       1  <0>1        0.0637
     36 H14        11.6825   13.3359   20.6808 H       1  <0>1        0.1552
     37 O3         11.4933   12.7582   10.3839 O.3     1  <0>1       -0.4806
     38 H          11.9510   11.9408   10.3671 H       1  <0>1        0.2951
@<TRIPOS>BOND
     1     1     2    1
     2     1    24    1
     3     1    25    1
     4     1    26    1
     5     2     7   ar
     6     2     3   ar
     7     3     4   ar
     8     3    27    1
     9     4     5    1
    10     4     6   ar
    11     6     7   ar
    12     6    12    1
    13     7     8    1
    14     8     9    1
    15     8    28    1
    16     8    29    1
    17     9    10    1
    18     9    30    1
    19     9    31    1
    20    10    11    2
    21    10    37    1
    22    12    13    2
    23    12    32    1
    24    13    21    1
    25    13    14    1
    26    14    19   ar
    27    14    15   ar
    28    15    16   ar
    29    15    33    1
    30    16    17   ar
    31    16    23    1
    32    17    18   ar
    33    17    34    1
    34    18    19   ar
    35    18    35    1
    36    19    20    1
    37    20    21   am
    38    20    36    1
    39    21    22    2
    40    37    38    1
@<TRIPOS>MOLECULE
ZINC03815505
 63 65 0 0 0
SMALL
USER_CHARGES

@<TRIPOS>ATOM
      1 C1         25.2241    5.9803   14.9221 C.3     1  <0>1       -0.0245
      2 C2         23.8187    6.3689   14.4588 C.3     1  <0>1       -0.0348
      3 C3         24.0024    8.6214   15.3279 C.3     1  <0>1       -0.0348
      4 C4         23.7313    9.4335   16.5959 C.3     1  <0>1       -0.0245
      5 C5         21.8270    7.5798   15.1143 C.3     1  <0>1       -0.0319
      6 C6         21.0171    6.3968   15.6483 C.3     1  <0>1       -0.0125
      7 C7         19.5236    6.6843   15.4814 C.3     1  <0>1       -0.0468
      8 C8         18.7137    5.5012   16.0155 C.3     1  <0>1       -0.0371
      9 C9         17.2203    5.7888   15.8484 C.3     1  <0>1        0.0142
     10 N1         16.4447    4.6560   16.3598 N.pl3   1  <0>1       -0.2916
     11 C10        15.0585    4.6876   16.3146 C.ar    1  <0>1        0.2712
     12 C11        14.4202    5.7993   15.7825 C.ar    1  <0>1        0.0503
     13 C12        13.0316    5.8185   15.7377 C.ar    1  <0>1        0.0650
     14 C13        12.3291    4.7041   16.2473 C.ar    1  <0>1        0.0630
     15 C14        10.9143    4.6899   16.2228 C.ar    1  <0>1       -0.0339
     16 C15        10.2465    5.7665   15.7060 C.ar    1  <0>1        0.0502
     17 C16        11.0054    6.9082   15.1901 C.ar    1  <0>1        0.2593
     18 O1         10.4165    7.8696   14.7288 O.2     1  <0>1       -0.2670
     19 N2         12.3524    6.8995   15.2244 N.ar    1  <0>1       -0.3102
     20 C17        13.1000    8.0474   14.7053 C.3     1  <0>1        0.0153
     21 C18         8.7656    5.7772   15.6678 C.ar    1  <0>1        0.0239
     22 C19         8.0897    5.2772   14.5541 C.ar    1  <0>1        0.0502
     23 C20         6.7088    5.2852   14.5271 C.ar    1  <0>1       -0.0427
     24 C21         5.9961    5.7971   15.5965 C.ar    1  <0>1       -0.0590
     25 C22         6.6602    6.2994   16.7012 C.ar    1  <0>1       -0.0427
     26 C23         8.0406    6.2925   16.7431 C.ar    1  <0>1        0.0502
     27 Cl1         8.8720    6.9238   18.1300 Cl      1  <0>1       -0.0829
     28 Cl2         8.9824    4.6411   13.2079 Cl      1  <0>1       -0.0829
     29 C24        13.0530    3.6243   16.7670 C.ar    1  <0>1        0.1802
     30 H1         25.8591    6.8661   14.9390 H       1  <0>1        0.0281
     31 H2         25.1712    5.5521   15.9231 H       1  <0>1        0.0281
     32 H3         25.6432    5.2458   14.2344 H       1  <0>1        0.0281
     33 H4         23.1838    5.4832   14.4419 H       1  <0>1        0.0812
     34 H5         23.8716    6.7971   13.4578 H       1  <0>1        0.0812
     35 H6         25.0689    8.4084   15.2539 H       1  <0>1        0.0812
     36 H7         23.6846    9.1927   14.4557 H       1  <0>1        0.0812
     37 H8         22.6813    9.7247   16.6233 H       1  <0>1        0.0281
     38 H9         23.9633    8.8277   17.4719 H       1  <0>1        0.0281
     39 H10        24.3562   10.3266   16.5959 H       1  <0>1        0.0281
     40 H11        21.6715    7.6710   14.0393 H       1  <0>1        0.0814
     41 H12        21.5011    8.4956   15.6075 H       1  <0>1        0.0814
     42 H13        21.2428    6.2491   16.7044 H       1  <0>1        0.0317
     43 H14        21.2783    5.4968   15.0917 H       1  <0>1        0.0317
     44 H15        19.2980    6.8320   14.4253 H       1  <0>1        0.0268
     45 H16        19.2625    7.5844   16.0381 H       1  <0>1        0.0268
     46 H17        18.9394    5.3536   17.0715 H       1  <0>1        0.0280
     47 H18        18.9748    4.6013   15.4588 H       1  <0>1        0.0280
     48 H19        16.9945    5.9365   14.7924 H       1  <0>1        0.0463
     49 H20        16.9590    6.6888   16.4051 H       1  <0>1        0.0463
     50 H21        16.9004    3.8839   16.7300 H       1  <0>1        0.1515
     51 H22        14.9933    6.6337   15.4058 H       1  <0>1        0.0719
     52 H23        10.3688    3.8404   16.6067 H       1  <0>1        0.0634
     53 H24        12.4018    8.7999   14.3385 H       1  <0>1        0.0457
     54 H25        13.7091    8.4746   15.5019 H       1  <0>1        0.0457
     55 H26        13.7452    7.7221   13.8893 H       1  <0>1        0.0457
     56 H27         6.1844    4.8949   13.6675 H       1  <0>1        0.0632
     57 H28         4.9165    5.8048   15.5688 H       1  <0>1        0.0618
     58 H29         6.0978    6.6976   17.5328 H       1  <0>1        0.0632
     59 H30        12.5296    2.7638   17.1569 H       1  <0>1        0.1383
     60 N3         23.2562    7.3483   15.4123 N.4     1  <0>1        0.2348
     61 H31        23.3419    6.9739   16.3644 H       1  <0>1        0.2033
     62 N4         14.4089    3.5883   16.8131 N.ar    1  <0>1       -0.1976
     63 H32        14.9184    2.7846   17.1987 H       1  <0>1        0.4542
@<TRIPOS>BOND
     1     1     2    1
     2     1    30    1
     3     1    31    1
     4     1    32    1
     5     2    33    1
     6     2    34    1
     7     2    60    1
     8     3     4    1
     9     3    35    1
    10     3    36    1
    11     3    60    1
    12     4    37    1
    13     4    38    1
    14     4    39    1
    15     5     6    1
    16     5    40    1
    17     5    41    1
    18     5    60    1
    19     6     7    1
    20     6    42    1
    21     6    43    1
    22     7     8    1
    23     7    44    1
    24     7    45    1
    25     8     9    1
    26     8    46    1
    27     8    47    1
    28     9    10    1
    29     9    48    1
    30     9    49    1
    31    10    11    1
    32    10    50    1
    33    11    12   ar
    34    11    62   ar
    35    12    13   ar
    36    12    51    1
    37    13    19   ar
    38    13    14   ar
    39    14    15   ar
    40    14    29   ar
    41    15    16   ar
    42    15    52    1
    43    16    17   ar
    44    16    21    1
    45    17    18    2
    46    17    19   ar
    47    19    20    1
    48    20    53    1
    49    20    54    1
    50    20    55    1
    51    21    26   ar
    52    21    22   ar
    53    22    23   ar
    54    22    28    1
    55    23    24   ar
    56    23    56    1
    57    24    25   ar
    58    24    57    1
    59    25    26   ar
    60    25    58    1
    61    26    27    1
    62    29    59    1
    63    29    62   ar
    64    60    61    1
    65    62    63    1
@<TRIPOS>MOLECULE
ZINC03815508
 69 71 0 0 0
SMALL
USER_CHARGES

@<TRIPOS>ATOM
      1 C1          3.5894   13.3090   23.4424 C.3     1  <0>1       -0.0245
      2 C2          4.5499   13.8961   22.4061 C.3     1  <0>1       -0.0348
      3 C3          2.7625   14.8650   21.0912 C.3     1  <0>1       -0.0348
      4 C4          1.8253   14.5321   19.9285 C.3     1  <0>1       -0.0245
      5 C5          4.8539   14.2598   20.0317 C.3     1  <0>1       -0.0305
      6 C6          5.7265   13.0390   19.7329 C.3     1  <0>1        0.0031
      7 C7          6.6390   13.3434   18.5432 C.3     1  <0>1        0.0166
      8 N1          7.4745   12.1745   18.2570 N.pl3   1  <0>1       -0.3132
      9 C8          8.3844   12.2133   17.2176 C.ar    1  <0>1        0.2171
     10 N2          8.4755   13.3246   16.4902 N.ar    1  <0>1       -0.2222
     11 C9          9.3205   13.4188   15.4834 C.ar    1  <0>1        0.0419
     12 C10        10.1346   12.3125   15.1860 C.ar    1  <0>1        0.0381
     13 C11        11.0593   12.3345   14.1289 C.ar    1  <0>1       -0.0385
     14 C12        11.8202   11.1977   13.9078 C.ar    1  <0>1        0.0258
     15 C13        11.6436   10.0717   14.7399 C.ar    1  <0>1        0.1363
     16 N3         10.7694   10.0754   15.7255 N.ar    1  <0>1       -0.2116
     17 C14        10.0116   11.1434   15.9817 C.ar    1  <0>1        0.1668
     18 N4          9.1233   11.1454   16.9834 N.ar    1  <0>1       -0.1947
     19 N5         12.4078    8.9358   14.5155 N.am    1  <0>1       -0.2536
     20 C15        12.2512    7.8520   15.3014 C.2     1  <0>1        0.3054
     21 O1         11.4403    7.8700   16.2069 O.2     1  <0>1       -0.2525
     22 N6         12.9937    6.7486   15.0833 N.am    1  <0>1       -0.2944
     23 C16        12.8234    5.5706   15.9375 C.3     1  <0>1        0.0276
     24 C17        11.3807    5.0715   15.8362 C.3     1  <0>1       -0.0442
     25 C18        13.7784    4.4664   15.4797 C.3     1  <0>1       -0.0442
     26 C19        13.1333    5.9438   17.3885 C.3     1  <0>1       -0.0442
     27 C20        12.8115   11.1645   12.8057 C.ar    1  <0>1        0.0220
     28 C21        12.4345   10.7222   11.5377 C.ar    1  <0>1        0.0502
     29 C22        13.3613   10.6986   10.5138 C.ar    1  <0>1       -0.0427
     30 C23        14.6636   11.1024   10.7465 C.ar    1  <0>1       -0.0590
     31 C24        15.0452   11.5366   12.0031 C.ar    1  <0>1       -0.0427
     32 C25        14.1265   11.5699   13.0340 C.ar    1  <0>1        0.0502
     33 Cl1        14.6075   12.1147   14.6106 Cl      1  <0>1       -0.0829
     34 Cl2        10.8022   10.2081   11.2454 Cl      1  <0>1       -0.0829
     35 H1          3.3140   12.2959   23.1495 H       1  <0>1        0.0281
     36 H2          4.0765   13.2857   24.4172 H       1  <0>1        0.0281
     37 H3          2.6934   13.9272   23.4986 H       1  <0>1        0.0281
     38 H4          5.4459   13.2779   22.3499 H       1  <0>1        0.0812
     39 H5          4.8253   14.9092   22.6990 H       1  <0>1        0.0812
     40 H6          2.2188   14.7795   22.0320 H       1  <0>1        0.0812
     41 H7          3.1347   15.8832   20.9778 H       1  <0>1        0.0812
     42 H8          1.5255   13.4859   19.9916 H       1  <0>1        0.0281
     43 H9          0.9411   15.1673   19.9814 H       1  <0>1        0.0281
     44 H10         2.3417   14.7057   18.9845 H       1  <0>1        0.0281
     45 H11         5.4849   15.0861   20.3590 H       1  <0>1        0.0815
     46 H12         4.3139   14.5499   19.1304 H       1  <0>1        0.0815
     47 H13         5.0899   12.1872   19.4940 H       1  <0>1        0.0332
     48 H14         6.3346   12.8045   20.6066 H       1  <0>1        0.0332
     49 H15         7.2756   14.1952   18.7821 H       1  <0>1        0.0464
     50 H16         6.0309   13.5780   17.6695 H       1  <0>1        0.0464
     51 H17         7.3890   11.3734   18.7972 H       1  <0>1        0.1489
     52 H18         9.3860   14.3255   14.9005 H       1  <0>1        0.0838
     53 H19        11.1739   13.2105   13.5077 H       1  <0>1        0.0632
     54 H20        13.0549    8.9215   13.7930 H       1  <0>1        0.1578
     55 H21        13.6407    6.7344   14.3608 H       1  <0>1        0.1508
     56 H22        11.1600    4.8056   14.8024 H       1  <0>1        0.0250
     57 H23        11.2540    4.1950   16.4717 H       1  <0>1        0.0250
     58 H24        10.7003    5.8581   16.1623 H       1  <0>1        0.0250
     59 H25        14.8063    4.8220   15.5518 H       1  <0>1        0.0250
     60 H26        13.6518    3.5900   16.1153 H       1  <0>1        0.0250
     61 H27        13.5577    4.2005   14.4460 H       1  <0>1        0.0250
     62 H28        12.4529    6.7305   17.7146 H       1  <0>1        0.0250
     63 H29        13.0066    5.0674   18.0240 H       1  <0>1        0.0250
     64 H30        14.1611    6.2994   17.4607 H       1  <0>1        0.0250
     65 H31        13.0695   10.3607    9.5305 H       1  <0>1        0.0632
     66 H32        15.3856   11.0783    9.9437 H       1  <0>1        0.0618
     67 H33        16.0635   11.8506   12.1785 H       1  <0>1        0.0632
     68 N7          3.8832   13.9011   21.0870 N.4     1  <0>1        0.2349
     69 H34         3.5147   12.9621   20.8960 H       1  <0>1        0.2033
@<TRIPOS>BOND
     1     1     2    1
     2     1    35    1
     3     1    36    1
     4     1    37    1
     5     2    38    1
     6     2    39    1
     7     2    68    1
     8     3     4    1
     9     3    40    1
    10     3    41    1
    11     3    68    1
    12     4    42    1
    13     4    43    1
    14     4    44    1
    15     5     6    1
    16     5    45    1
    17     5    46    1
    18     5    68    1
    19     6     7    1
    20     6    47    1
    21     6    48    1
    22     7     8    1
    23     7    49    1
    24     7    50    1
    25     8     9    1
    26     8    51    1
    27     9    18   ar
    28     9    10   ar
    29    10    11   ar
    30    11    12   ar
    31    11    52    1
    32    12    17   ar
    33    12    13   ar
    34    13    14   ar
    35    13    53    1
    36    14    15   ar
    37    14    27    1
    38    15    16   ar
    39    15    19    1
    40    16    17   ar
    41    17    18   ar
    42    19    20   am
    43    19    54    1
    44    20    21    2
    45    20    22   am
    46    22    23    1
    47    22    55    1
    48    23    24    1
    49    23    25    1
    50    23    26    1
    51    24    56    1
    52    24    57    1
    53    24    58    1
    54    25    59    1
    55    25    60    1
    56    25    61    1
    57    26    62    1
    58    26    63    1
    59    26    64    1
    60    27    32   ar
    61    27    28   ar
    62    28    29   ar
    63    28    34    1
    64    29    30   ar
    65    29    65    1
    66    30    31   ar
    67    30    66    1
    68    31    32   ar
    69    31    67    1
    70    32    33    1
    71    68    69    1
@<TRIPOS>MOLECULE
ZINC03815509
 63 66 0 0 0
SMALL
USER_CHARGES

@<TRIPOS>ATOM
      1 C1         13.2543   12.3047   15.6265 C.3     1  <0>1       -0.0469
      2 C2         12.8752   11.8802   14.2063 C.3     1  <0>1        0.0252
      3 N1         11.4708   11.4638   14.1795 N.ar    1  <0>1       -0.2925
      4 C3         11.1471   10.1513   14.4144 C.ar    1  <0>1        0.1485
      5 C4          9.7988    9.7334   14.3913 C.ar    1  <0>1        0.0365
      6 C5          8.7697   10.6653   14.1262 C.ar    1  <0>1       -0.0367
      7 C6          9.1023   11.9730   13.8934 C.ar    1  <0>1        0.0474
      8 C7         10.5105   12.3732   13.9246 C.ar    1  <0>1        0.2606
      9 O1         10.8152   13.5345   13.7187 O.2     1  <0>1       -0.2670
     10 C8          8.0467   12.9743   13.6129 C.ar    1  <0>1       -0.0127
     11 C9          7.9905   13.6026   12.3693 C.ar    1  <0>1       -0.0539
     12 C10         7.0019   14.5304   12.1121 C.ar    1  <0>1       -0.0612
     13 C11         6.0748   14.8460   13.0892 C.ar    1  <0>1       -0.0617
     14 C12         6.1285   14.2299   14.3266 C.ar    1  <0>1       -0.0612
     15 C13         7.1089   13.2963   14.5936 C.ar    1  <0>1       -0.0539
     16 C14         9.5103    8.3824   14.6365 C.ar    1  <0>1        0.0418
     17 N2         10.5110    7.5568   14.8789 N.ar    1  <0>1       -0.2219
     18 C15        11.7684    7.9856   14.8927 C.ar    1  <0>1        0.2214
     19 N3         12.0893    9.2514   14.6723 N.ar    1  <0>1       -0.1961
     20 N4         12.7777    7.0788   15.1518 N.pl3   1  <0>1       -0.2836
     21 C16        12.4725    5.7244   15.3329 C.ar    1  <0>1        0.0338
     22 C17        11.4236    5.1483   14.6282 C.ar    1  <0>1       -0.0370
     23 C18        11.1236    3.8123   14.8071 C.ar    1  <0>1       -0.0180
     24 C19        11.8694    3.0457   15.6905 C.ar    1  <0>1        0.1264
     25 C20        12.9175    3.6203   16.3944 C.ar    1  <0>1       -0.0180
     26 C21        13.2187    4.9562   16.2170 C.ar    1  <0>1       -0.0370
     27 O2         11.5733    1.7302   15.8661 O.3     1  <0>1       -0.4543
     28 C22        12.4371    0.9793   16.7216 C.3     1  <0>1        0.1169
     29 C23        14.7864    0.4370   16.9443 C.3     1  <0>1       -0.0315
     30 C24        16.1169    0.5236   16.1939 C.3     1  <0>1       -0.0244
     31 C25        13.4946   -0.5011   15.1239 C.3     1  <0>1       -0.0315
     32 C26        12.7184   -0.0758   13.8758 C.3     1  <0>1       -0.0244
     33 H1         14.2992   12.6144   15.6463 H       1  <0>1        0.0247
     34 H2         12.6226   13.1366   15.9378 H       1  <0>1        0.0247
     35 H3         13.1112   11.4652   16.3069 H       1  <0>1        0.0247
     36 H4         13.5068   11.0482   13.8949 H       1  <0>1        0.0490
     37 H5         13.0183   12.7195   13.5258 H       1  <0>1        0.0490
     38 H6          7.7367   10.3507   14.1071 H       1  <0>1        0.0633
     39 H7          8.7167   13.3605   11.6074 H       1  <0>1        0.0624
     40 H8          6.9544   15.0141   11.1478 H       1  <0>1        0.0618
     41 H9          5.3056   15.5760   12.8849 H       1  <0>1        0.0618
     42 H10         5.4020   14.4804   15.0854 H       1  <0>1        0.0618
     43 H11         7.1498   12.8157   15.5599 H       1  <0>1        0.0624
     44 H12         8.4909    8.0257   14.6276 H       1  <0>1        0.0838
     45 H13        13.6978    7.3804   15.2082 H       1  <0>1        0.1550
     46 H14        10.8457    5.7439   13.9372 H       1  <0>1        0.0637
     47 H15        10.3081    3.3640   14.2590 H       1  <0>1        0.0655
     48 H16        13.4981    3.0227   17.0816 H       1  <0>1        0.0655
     49 H17        14.0348    5.4034   16.7651 H       1  <0>1        0.0637
     50 H18        12.6708    1.5677   17.6090 H       1  <0>1        0.1300
     51 H19        11.9410    0.0554   17.0186 H       1  <0>1        0.1300
     52 H20        14.7593    1.1974   17.7248 H       1  <0>1        0.0813
     53 H21        14.6872   -0.5503   17.3954 H       1  <0>1        0.0813
     54 H22        16.9372    0.3303   16.8851 H       1  <0>1        0.0281
     55 H23        16.1324   -0.2180   15.3951 H       1  <0>1        0.0281
     56 H24        16.2289    1.5202   15.7666 H       1  <0>1        0.0281
     57 H25        14.4685   -0.8927   14.8302 H       1  <0>1        0.0813
     58 H26        12.9368   -1.2738   15.6529 H       1  <0>1        0.0813
     59 H27        11.7625    0.3560   14.1721 H       1  <0>1        0.0281
     60 H28        13.2963    0.6652   13.3236 H       1  <0>1        0.0281
     61 H29        12.5436   -0.9457   13.2428 H       1  <0>1        0.0281
     62 N5         13.6858    0.6823   15.9886 N.4     1  <0>1        0.2633
     63 H30        13.9277    1.4890   15.4013 H       1  <0>1        0.2070
@<TRIPOS>BOND
     1     1     2    1
     2     1    33    1
     3     1    34    1
     4     1    35    1
     5     2     3    1
     6     2    36    1
     7     2    37    1
     8     3     8   ar
     9     3     4   ar
    10     4    19   ar
    11     4     5   ar
    12     5     6   ar
    13     5    16   ar
    14     6     7   ar
    15     6    38    1
    16     7     8   ar
    17     7    10    1
    18     8     9    2
    19    10    15   ar
    20    10    11   ar
    21    11    12   ar
    22    11    39    1
    23    12    13   ar
    24    12    40    1
    25    13    14   ar
    26    13    41    1
    27    14    15   ar
    28    14    42    1
    29    15    43    1
    30    16    17   ar
    31    16    44    1
    32    17    18   ar
    33    18    19   ar
    34    18    20    1
    35    20    21    1
    36    20    45    1
    37    21    26   ar
    38    21    22   ar
    39    22    23   ar
    40    22    46    1
    41    23    24   ar
    42    23    47    1
    43    24    25   ar
    44    24    27    1
    45    25    26   ar
    46    25    48    1
    47    26    49    1
    48    27    28    1
    49    28    50    1
    50    28    51    1
    51    28    62    1
    52    29    30    1
    53    29    52    1
    54    29    53    1
    55    29    62    1
    56    30    54    1
    57    30    55    1
    58    30    56    1
    59    31    32    1
    60    31    57    1
    61    31    58    1
    62    31    62    1
    63    32    59    1
    64    32    60    1
    65    32    61    1
    66    62    63    1
@<TRIPOS>MOLECULE
ZINC03815514
 71 75 0 0 0
SMALL
USER_CHARGES

@<TRIPOS>ATOM
      1 C1         12.2903    9.6342   13.9444 C.3     1  <0>1        0.0153
      2 N1         11.7976    8.9991   15.1692 N.ar    1  <0>1       -0.3105
      3 C2         10.8901    9.6612   15.9637 C.ar    1  <0>1        0.0564
      4 C3         10.4293   10.9277   15.6242 C.ar    1  <0>1        0.0026
      5 C4          9.5138   11.5539   16.4585 C.ar    1  <0>1        0.1248
      6 N2          9.0750   10.9656   17.5666 N.ar    1  <0>1       -0.2395
      7 C5          9.4797    9.7690   17.9321 C.ar    1  <0>1        0.0388
      8 C6         10.4031    9.0661   17.1482 C.ar    1  <0>1        0.0175
      9 C7         10.8491    7.7775   17.5261 C.ar    1  <0>1       -0.0382
     10 C8         11.7516    7.1256   16.7306 C.ar    1  <0>1        0.0501
     11 C9         12.2325    7.7688   15.5057 C.ar    1  <0>1        0.2593
     12 O1         13.0322    7.1915   14.7908 O.2     1  <0>1       -0.2670
     13 C10        12.2350    5.7754   17.1028 C.ar    1  <0>1        0.0239
     14 C11        13.3740    5.6331   17.8964 C.ar    1  <0>1        0.0502
     15 C12        13.8161    4.3717   18.2443 C.ar    1  <0>1       -0.0427
     16 C13        13.1388    3.2508   17.7990 C.ar    1  <0>1       -0.0590
     17 C14        12.0124    3.3849   17.0073 C.ar    1  <0>1       -0.0427
     18 C15        11.5566    4.6405   16.6567 C.ar    1  <0>1        0.0502
     19 Cl1        10.1431    4.8067   15.6625 Cl      1  <0>1       -0.0829
     20 Cl2        14.2296    7.0384   18.4503 Cl      1  <0>1       -0.0829
     21 N3          9.0472   12.8185   16.1290 N.pl3   1  <0>1       -0.2994
     22 C16         8.2191   13.5127   17.0188 C.ar    1  <0>1        0.0326
     23 C17         7.1605   14.2705   16.5354 C.ar    1  <0>1       -0.0371
     24 C18         6.3414   14.9516   17.4142 C.ar    1  <0>1       -0.0182
     25 C19         6.5817   14.8867   18.7788 C.ar    1  <0>1        0.1206
     26 C20         7.6421   14.1343   19.2623 C.ar    1  <0>1       -0.0182
     27 C21         8.4592   13.4487   18.3852 C.ar    1  <0>1       -0.0371
     28 O2          5.7775   15.5615   19.6433 O.3     1  <0>1       -0.4918
     29 C22         4.7046   16.3163   19.0766 C.3     1  <0>1        0.0944
     30 C23         3.9161   17.0009   20.1948 C.3     1  <0>1        0.0217
     31 C24         2.7675   17.8090   19.5880 C.3     1  <0>1       -0.0283
     32 C25         1.3288   17.4765   21.5075 C.3     1  <0>1        0.0094
     33 C26         0.6188   18.1947   22.6575 C.3     1  <0>1        0.0092
     34 C27         0.3416   20.1536   21.2630 C.3     1  <0>1        0.0092
     35 C28         1.0516   19.4353   20.1130 C.3     1  <0>1        0.0094
     36 C29        -1.0970   19.8211   23.1826 C.3     1  <0>1       -0.0427
     37 H1         13.1849   10.2144   14.1706 H       1  <0>1        0.0457
     38 H2         12.5313    8.8667   13.2088 H       1  <0>1        0.0457
     39 H3         11.5213   10.2939   13.5426 H       1  <0>1        0.0457
     40 H4         10.7781   11.4165   14.7265 H       1  <0>1        0.0673
     41 H5          9.0981    9.3265   18.8404 H       1  <0>1        0.0837
     42 H6         10.4823    7.3148   18.4303 H       1  <0>1        0.0632
     43 H7         14.6949    4.2602   18.8621 H       1  <0>1        0.0632
     44 H8         13.4911    2.2667   18.0705 H       1  <0>1        0.0618
     45 H9         11.4881    2.5057   16.6629 H       1  <0>1        0.0632
     46 H10         9.2948   13.2213   15.2821 H       1  <0>1        0.1536
     47 H11         6.9754   14.3241   15.4727 H       1  <0>1        0.0637
     48 H12         5.5157   15.5376   17.0387 H       1  <0>1        0.0655
     49 H13         7.8290   14.0850   20.3249 H       1  <0>1        0.0655
     50 H14         9.2845   12.8627   18.7618 H       1  <0>1        0.0637
     51 H15         5.1082   17.0713   18.4018 H       1  <0>1        0.0698
     52 H16         4.0444   15.6493   18.5222 H       1  <0>1        0.0698
     53 H17         3.5126   16.2459   20.8696 H       1  <0>1        0.0350
     54 H18         4.5765   17.6679   20.7491 H       1  <0>1        0.0350
     55 H19         3.1710   18.5639   18.9133 H       1  <0>1        0.0815
     56 H20         2.1071   17.1420   19.0337 H       1  <0>1        0.0815
     57 H21         0.5965   16.9316   20.9117 H       1  <0>1        0.0868
     58 H22         2.0611   16.7778   21.9121 H       1  <0>1        0.0868
     59 H23         1.3542   18.7173   23.2692 H       1  <0>1        0.0868
     60 H24         0.0885   17.4652   23.2698 H       1  <0>1        0.0868
     61 H25         1.0739   20.6983   21.8588 H       1  <0>1        0.0868
     62 H26        -0.3905   20.8525   20.8585 H       1  <0>1        0.0868
     63 H27         1.5818   20.1648   19.5008 H       1  <0>1        0.0868
     64 H28         0.3161   18.9128   19.5014 H       1  <0>1        0.0868
     65 H29        -1.8454   20.4830   22.7468 H       1  <0>1        0.0778
     66 H30        -1.5915   19.0657   23.7934 H       1  <0>1        0.0778
     67 H31        -0.4159   20.4021   23.8042 H       1  <0>1        0.0778
     68 N4          2.0280   18.4803   20.6782 N.4     1  <0>1        0.2428
     69 H32         2.6947   18.9936   21.2668 H       1  <0>1        0.2038
     70 N5         -0.3576   19.1498   22.0924 N.4     1  <0>1        0.2405
     71 H33        -1.0243   18.6365   21.5038 H       1  <0>1        0.2035
@<TRIPOS>BOND
     1     1     2    1
     2     1    37    1
     3     1    38    1
     4     1    39    1
     5     2    11   ar
     6     2     3   ar
     7     3     8   ar
     8     3     4   ar
     9     4     5   ar
    10     4    40    1
    11     5     6   ar
    12     5    21    1
    13     6     7   ar
    14     7     8   ar
    15     7    41    1
    16     8     9   ar
    17     9    10   ar
    18     9    42    1
    19    10    11   ar
    20    10    13    1
    21    11    12    2
    22    13    18   ar
    23    13    14   ar
    24    14    15   ar
    25    14    20    1
    26    15    16   ar
    27    15    43    1
    28    16    17   ar
    29    16    44    1
    30    17    18   ar
    31    17    45    1
    32    18    19    1
    33    21    22    1
    34    21    46    1
    35    22    27   ar
    36    22    23   ar
    37    23    24   ar
    38    23    47    1
    39    24    25   ar
    40    24    48    1
    41    25    26   ar
    42    25    28    1
    43    26    27   ar
    44    26    49    1
    45    27    50    1
    46    28    29    1
    47    29    30    1
    48    29    51    1
    49    29    52    1
    50    30    31    1
    51    30    53    1
    52    30    54    1
    53    31    55    1
    54    31    56    1
    55    31    68    1
    56    32    33    1
    57    32    57    1
    58    32    58    1
    59    32    68    1
    60    33    59    1
    61    33    60    1
    62    33    70    1
    63    34    35    1
    64    34    61    1
    65    34    62    1
    66    34    70    1
    67    35    63    1
    68    35    64    1
    69    35    68    1
    70    36    65    1
    71    36    66    1
    72    36    67    1
    73    36    70    1
    74    68    69    1
    75    70    71    1
@<TRIPOS>MOLECULE
ZINC03815517
 64 67 0 0 0
SMALL
USER_CHARGES

@<TRIPOS>ATOM
      1 C1          3.4154   19.1533   20.5033 C.3     1  <0>1       -0.0245
      2 C2          4.6057   18.2773   20.8998 C.3     1  <0>1       -0.0347
      3 C3          3.3008   17.2186   22.6431 C.3     1  <0>1       -0.0347
      4 C4          4.2034   17.6497   23.8008 C.3     1  <0>1       -0.0245
      5 C5          3.3669   16.2521   20.4240 C.3     1  <0>1        0.0031
      6 C6          4.3146   15.8308   19.2992 C.3     1  <0>1        0.1291
      7 O1          5.2819   14.9115   19.8105 O.3     1  <0>1       -0.4867
      8 C7          6.2058   14.4361   18.9332 C.ar    1  <0>1        0.1209
      9 C8          7.1736   13.5403   19.3636 C.ar    1  <0>1       -0.0182
     10 C9          8.1125   13.0573   18.4735 C.ar    1  <0>1       -0.0371
     11 C10         8.0873   13.4684   17.1472 C.ar    1  <0>1        0.0326
     12 C11         7.1212   14.3692   16.7185 C.ar    1  <0>1       -0.0371
     13 C12         6.1802   14.8475   17.6087 C.ar    1  <0>1       -0.0182
     14 N1          9.0388   12.9793   16.2443 N.pl3   1  <0>1       -0.2994
     15 C13         9.4472   11.6552   16.3164 C.ar    1  <0>1        0.1248
     16 C14        10.4772   11.2150   15.4963 C.ar    1  <0>1        0.0026
     17 C15        10.8784    9.8871   15.5767 C.ar    1  <0>1        0.0564
     18 C16        10.2164    9.0413   16.4940 C.ar    1  <0>1        0.0175
     19 C17        10.5979    7.6832   16.6041 C.ar    1  <0>1       -0.0382
     20 C18        11.6094    7.2096   15.8136 C.ar    1  <0>1        0.0501
     21 C19        12.2702    8.1115   14.8675 C.ar    1  <0>1        0.2593
     22 O2         13.1672    7.6941   14.1568 O.2     1  <0>1       -0.2670
     23 N2         11.8941    9.4029   14.7847 N.ar    1  <0>1       -0.3105
     24 C20        12.5679   10.2968   13.8397 C.3     1  <0>1        0.0153
     25 C21        12.0281    5.7917   15.9085 C.ar    1  <0>1        0.0239
     26 C22        13.0333    5.4161   16.8006 C.ar    1  <0>1        0.0502
     27 C23        13.4147    4.0915   16.8886 C.ar    1  <0>1       -0.0427
     28 C24        12.8109    3.1400   16.0862 C.ar    1  <0>1       -0.0590
     29 C25        11.8183    3.5067   15.1954 C.ar    1  <0>1       -0.0427
     30 C26        11.4232    4.8268   15.1020 C.ar    1  <0>1        0.0502
     31 Cl1        10.1772    5.2849   13.9833 Cl      1  <0>1       -0.0829
     32 Cl2        13.7976    6.6098   17.8029 Cl      1  <0>1       -0.0829
     33 C27         9.1868    9.5682   17.2832 C.ar    1  <0>1        0.0388
     34 N3          8.8447   10.8330   17.1688 N.ar    1  <0>1       -0.2395
     35 H1          3.7762   20.0497   19.9989 H       1  <0>1        0.0281
     36 H2          2.7623   18.5963   19.8314 H       1  <0>1        0.0281
     37 H3          2.8600   19.4377   21.3970 H       1  <0>1        0.0281
     38 H4          5.1977   18.7903   21.6577 H       1  <0>1        0.0812
     39 H5          5.2245   18.0867   20.0230 H       1  <0>1        0.0812
     40 H6          2.5642   17.9976   22.4470 H       1  <0>1        0.0812
     41 H7          2.7893   16.2929   22.9065 H       1  <0>1        0.0812
     42 H8          3.6158   17.7093   24.7169 H       1  <0>1        0.0281
     43 H9          5.0033   16.9204   23.9290 H       1  <0>1        0.0281
     44 H10         4.6342   18.6266   23.5813 H       1  <0>1        0.0281
     45 H11         2.5768   16.8826   20.0163 H       1  <0>1        0.0848
     46 H12         2.9257   15.3652   20.8787 H       1  <0>1        0.0848
     47 H13         4.8227   16.7103   18.9037 H       1  <0>1        0.0751
     48 H14         3.7438   15.3523   18.5034 H       1  <0>1        0.0751
     49 H15         7.1931   13.2208   20.3951 H       1  <0>1        0.0655
     50 H16         8.8660   12.3600   18.8087 H       1  <0>1        0.0637
     51 H17         7.1038   14.6928   15.6882 H       1  <0>1        0.0637
     52 H18         5.4266   15.5452   17.2747 H       1  <0>1        0.0655
     53 H19         9.4123   13.5659   15.5682 H       1  <0>1        0.1536
     54 H20        10.9589   11.8934   14.8076 H       1  <0>1        0.0673
     55 H21        10.0976    7.0292   17.3030 H       1  <0>1        0.0632
     56 H22        13.4193   10.7688   14.3299 H       1  <0>1        0.0457
     57 H23        12.9155    9.7224   12.9810 H       1  <0>1        0.0457
     58 H24        11.8701   11.0643   13.5049 H       1  <0>1        0.0457
     59 H25        14.1891    3.7987   17.5820 H       1  <0>1        0.0632
     60 H26        13.1162    2.1064   16.1554 H       1  <0>1        0.0618
     61 H27        11.3509    2.7589   14.5718 H       1  <0>1        0.0632
     62 H28         8.6711    8.9332   17.9884 H       1  <0>1        0.0837
     63 N4          4.1393   16.9864   21.4482 N.4     1  <0>1        0.2372
     64 H29         4.9550   16.4241   21.7173 H       1  <0>1        0.2034
@<TRIPOS>BOND
     1     1     2    1
     2     1    35    1
     3     1    36    1
     4     1    37    1
     5     2    38    1
     6     2    39    1
     7     2    63    1
     8     3     4    1
     9     3    40    1
    10     3    41    1
    11     3    63    1
    12     4    42    1
    13     4    43    1
    14     4    44    1
    15     5     6    1
    16     5    45    1
    17     5    46    1
    18     5    63    1
    19     6     7    1
    20     6    47    1
    21     6    48    1
    22     7     8    1
    23     8    13   ar
    24     8     9   ar
    25     9    10   ar
    26     9    49    1
    27    10    11   ar
    28    10    50    1
    29    11    12   ar
    30    11    14    1
    31    12    13   ar
    32    12    51    1
    33    13    52    1
    34    14    15    1
    35    14    53    1
    36    15    34   ar
    37    15    16   ar
    38    16    17   ar
    39    16    54    1
    40    17    23   ar
    41    17    18   ar
    42    18    19   ar
    43    18    33   ar
    44    19    20   ar
    45    19    55    1
    46    20    21   ar
    47    20    25    1
    48    21    22    2
    49    21    23   ar
    50    23    24    1
    51    24    56    1
    52    24    57    1
    53    24    58    1
    54    25    30   ar
    55    25    26   ar
    56    26    27   ar
    57    26    32    1
    58    27    28   ar
    59    27    59    1
    60    28    29   ar
    61    28    60    1
    62    29    30   ar
    63    29    61    1
    64    30    31    1
    65    33    34   ar
    66    33    62    1
    67    63    64    1
@<TRIPOS>MOLECULE
ZINC03815520
 42 45 0 0 0
SMALL
USER_CHARGES

@<TRIPOS>ATOM
      1 C1         12.3399    9.7226   14.0440 C.3     1  <0>1        0.0167
      2 N1         11.7642    9.0215   15.1943 N.ar    1  <0>1       -0.2953
      3 C2         10.8159    9.6457   15.9649 C.ar    1  <0>1        0.1482
      4 C3         10.2511    8.9842   17.0768 C.ar    1  <0>1        0.0365
      5 C4         10.6586    7.6713   17.4059 C.ar    1  <0>1       -0.0366
      6 C5         11.6048    7.0561   16.6306 C.ar    1  <0>1        0.0502
      7 C6         12.1708    7.7707   15.4845 C.ar    1  <0>1        0.2604
      8 O1         13.0134    7.2309   14.7898 O.2     1  <0>1       -0.2670
      9 C7         12.0527    5.6803   16.9490 C.ar    1  <0>1        0.0239
     10 C8         13.1374    5.4765   17.8029 C.ar    1  <0>1        0.0502
     11 C9         13.5474    4.1911   18.0987 C.ar    1  <0>1       -0.0427
     12 C10        12.8911    3.1075   17.5434 C.ar    1  <0>1       -0.0590
     13 C11        11.8182    3.3027   16.6924 C.ar    1  <0>1       -0.0427
     14 C12        11.3952    4.5828   16.3918 C.ar    1  <0>1        0.0502
     15 Cl1        10.0493    4.8257   15.3227 Cl      1  <0>1       -0.0829
     16 Cl2        13.9661    6.8352   18.4962 Cl      1  <0>1       -0.0829
     17 C13         9.2842    9.6576   17.8383 C.ar    1  <0>1        0.0418
     18 N2          8.9417   10.8822   17.4845 N.ar    1  <0>1       -0.2219
     19 C14         9.4947   11.4739   16.4312 C.ar    1  <0>1        0.2214
     20 N3         10.4072   10.8769   15.6796 N.ar    1  <0>1       -0.1961
     21 N4          9.0993   12.7566   16.1049 N.pl3   1  <0>1       -0.2836
     22 C15         8.2200   13.4528   16.9431 C.ar    1  <0>1        0.0338
     23 C16         8.2731   13.2621   18.3175 C.ar    1  <0>1       -0.0370
     24 C17         7.4058   13.9495   19.1435 C.ar    1  <0>1       -0.0184
     25 C18         6.4820   14.8304   18.6007 C.ar    1  <0>1        0.1170
     26 C19         6.4282   15.0213   17.2277 C.ar    1  <0>1       -0.0184
     27 C20         7.2946   14.3345   16.4003 C.ar    1  <0>1       -0.0370
     28 O2          5.6289   15.5076   19.4148 O.3     1  <0>1       -0.5068
     29 H1         13.2230   10.2773   14.3613 H       1  <0>1        0.0457
     30 H2         12.6213    8.9977   13.2802 H       1  <0>1        0.0457
     31 H3         11.6039   10.4145   13.6345 H       1  <0>1        0.0457
     32 H4         10.2294    7.1607   18.2552 H       1  <0>1        0.0633
     33 H5         14.3846    4.0319   18.7620 H       1  <0>1        0.0632
     34 H6         13.2181    2.1046   17.7749 H       1  <0>1        0.0618
     35 H7         11.3103    2.4525   16.2618 H       1  <0>1        0.0632
     36 H8          8.8294    9.1840   18.6958 H       1  <0>1        0.0838
     37 H9          9.4309   13.1750   15.2949 H       1  <0>1        0.1550
     38 H10         8.9956   12.5800   18.7408 H       1  <0>1        0.0637
     39 H11         7.4470   13.8015   20.2126 H       1  <0>1        0.0655
     40 H12         5.7084   15.7071   16.8058 H       1  <0>1        0.0655
     41 H13         7.2523   14.4829   15.3314 H       1  <0>1        0.0637
     42 H14         5.9687   16.3605   19.7184 H       1  <0>1        0.2921
@<TRIPOS>BOND
     1     1     2    1
     2     1    29    1
     3     1    30    1
     4     1    31    1
     5     2     7   ar
     6     2     3   ar
     7     3    20   ar
     8     3     4   ar
     9     4     5   ar
    10     4    17   ar
    11     5     6   ar
    12     5    32    1
    13     6     7   ar
    14     6     9    1
    15     7     8    2
    16     9    14   ar
    17     9    10   ar
    18    10    11   ar
    19    10    16    1
    20    11    12   ar
    21    11    33    1
    22    12    13   ar
    23    12    34    1
    24    13    14   ar
    25    13    35    1
    26    14    15    1
    27    17    18   ar
    28    17    36    1
    29    18    19   ar
    30    19    20   ar
    31    19    21    1
    32    21    22    1
    33    21    37    1
    34    22    27   ar
    35    22    23   ar
    36    23    24   ar
    37    23    38    1
    38    24    25   ar
    39    24    39    1
    40    25    26   ar
    41    25    28    1
    42    26    27   ar
    43    26    40    1
    44    27    41    1
    45    28    42    1
@<TRIPOS>MOLECULE
ZINC03815526
 45 47 0 0 0
SMALL
USER_CHARGES

@<TRIPOS>ATOM
      1 C1         11.6920    5.0758   14.1809 C.3     1  <0>1       -0.0442
      2 C2         12.4096    5.6572   15.4008 C.3     1  <0>1        0.0276
      3 C3         13.6982    4.8728   15.6562 C.3     1  <0>1       -0.0442
      4 C4         11.4985    5.5540   16.6256 C.3     1  <0>1       -0.0442
      5 N1         12.7353    7.0636   15.1514 N.am    1  <0>1       -0.2944
      6 C5         11.7508    7.9489   14.9003 C.2     1  <0>1        0.3054
      7 O1         10.5924    7.5806   14.8807 O.2     1  <0>1       -0.2525
      8 N2         12.0503    9.2429   14.6709 N.am    1  <0>1       -0.2536
      9 C6         11.0368   10.1543   14.4124 C.ar    1  <0>1        0.1363
     10 C7         11.3681   11.5053   14.1743 C.ar    1  <0>1        0.0255
     11 C8         10.3588   12.4190   13.9162 C.ar    1  <0>1       -0.0385
     12 C9          9.0345   11.9511   13.9034 C.ar    1  <0>1        0.0381
     13 C10         7.9474   12.8052   13.6505 C.ar    1  <0>1        0.0419
     14 N3          6.7327   12.2944   13.6542 N.ar    1  <0>1       -0.2224
     15 C11         6.5249   11.0010   13.8906 C.ar    1  <0>1        0.2145
     16 N4          7.5069   10.1540   14.1343 N.ar    1  <0>1       -0.1949
     17 C12         8.7770   10.5774   14.1520 C.ar    1  <0>1        0.1668
     18 N5          9.7866    9.7394   14.3950 N.ar    1  <0>1       -0.2116
     19 N6          5.2272   10.5257   13.8807 N.pl3   1  <0>1       -0.3274
     20 C13        12.7842   11.9434   14.2006 C.ar    1  <0>1        0.0177
     21 C14        13.3600   12.3810   15.3937 C.ar    1  <0>1        0.0498
     22 C15        14.6796   12.7880   15.4116 C.ar    1  <0>1       -0.0427
     23 C16        15.4301   12.7623   14.2497 C.ar    1  <0>1       -0.0593
     24 C17        14.8650   12.3296   13.0639 C.ar    1  <0>1       -0.0471
     25 C18        13.5478   11.9146   13.0342 C.ar    1  <0>1        0.0271
     26 Br1        12.7794   11.3160   11.4134 Br      1  <0>1       -0.0496
     27 Cl1        12.4195   12.4144   16.8525 Cl      1  <0>1       -0.0829
     28 H1         12.3411    5.1493   13.3083 H       1  <0>1        0.0250
     29 H2         11.4497    4.0294   14.3665 H       1  <0>1        0.0250
     30 H3         10.7740    5.6346   13.9989 H       1  <0>1        0.0250
     31 H4         14.2095    5.2869   16.5252 H       1  <0>1        0.0250
     32 H5         13.4558    3.8264   15.8417 H       1  <0>1        0.0250
     33 H6         14.3473    4.9462   14.7837 H       1  <0>1        0.0250
     34 H7         10.5805    6.1128   16.4436 H       1  <0>1        0.0250
     35 H8         11.2561    4.5076   16.8111 H       1  <0>1        0.0250
     36 H9         12.0098    5.9681   17.4946 H       1  <0>1        0.0250
     37 H10        13.6595    7.3575   15.1671 H       1  <0>1        0.1508
     38 H11        12.9746    9.5367   14.6865 H       1  <0>1        0.1578
     39 H12        10.5834   13.4590   13.7308 H       1  <0>1        0.0632
     40 H13         8.1040   13.8563   13.4577 H       1  <0>1        0.0838
     41 H14         5.0533    9.5867   14.0509 H       1  <0>1        0.1452
     42 H15         4.4903   11.1311   13.7037 H       1  <0>1        0.1452
     43 H16        15.1265   13.1272   16.3344 H       1  <0>1        0.0632
     44 H17        16.4617   13.0811   14.2688 H       1  <0>1        0.0618
     45 H18        15.4560   12.3118   12.1603 H       1  <0>1        0.0629
@<TRIPOS>BOND
     1     1     2    1
     2     1    28    1
     3     1    29    1
     4     1    30    1
     5     2     3    1
     6     2     4    1
     7     2     5    1
     8     3    31    1
     9     3    32    1
    10     3    33    1
    11     4    34    1
    12     4    35    1
    13     4    36    1
    14     5     6   am
    15     5    37    1
    16     6     7    2
    17     6     8   am
    18     8     9    1
    19     8    38    1
    20     9    18   ar
    21     9    10   ar
    22    10    11   ar
    23    10    20    1
    24    11    12   ar
    25    11    39    1
    26    12    17   ar
    27    12    13   ar
    28    13    14   ar
    29    13    40    1
    30    14    15   ar
    31    15    16   ar
    32    15    19    1
    33    16    17   ar
    34    17    18   ar
    35    19    41    1
    36    19    42    1
    37    20    25   ar
    38    20    21   ar
    39    21    22   ar
    40    21    27    1
    41    22    23   ar
    42    22    43    1
    43    23    24   ar
    44    23    44    1
    45    24    25   ar
    46    24    45    1
    47    25    26    1
@<TRIPOS>MOLECULE
ZINC03815527
 50 53 0 0 0
SMALL
USER_CHARGES

@<TRIPOS>ATOM
      1 C1         10.0276   13.1222   15.0597 C.ar    1  <0>1       -0.0336
      2 C2         11.1335   12.9017   15.8556 C.ar    1  <0>1       -0.0380
      3 C3         11.7108   11.6382   15.9132 C.ar    1  <0>1        0.0417
      4 C4         11.1574   10.6009   15.1495 C.ar    1  <0>1        0.0102
      5 C5         10.0464   10.8350   14.3463 C.ar    1  <0>1       -0.0257
      6 C6          9.4872   12.0965   14.3025 C.ar    1  <0>1        0.1057
      7 S1          8.0793   12.3998   13.2875 S.O2    1  <0>1        0.0560
      8 O1          8.0771   13.7917   13.0013 O.2     1  <0>1       -0.1533
      9 O2          8.0946   11.4121   12.2659 O.2     1  <0>1       -0.1533
     10 N1          6.7369   12.1045   14.2111 N.3     1  <0>1       -0.2035
     11 C7         11.9794    9.4005   15.4195 C.2     1  <0>1        0.0479
     12 C8         11.8165    8.1341   14.8912 C.2     1  <0>1       -0.0253
     13 C9         12.7857    7.1389   15.1337 C.ar    1  <0>1        0.0437
     14 C10        12.5476    5.7793   15.2808 C.ar    1  <0>1       -0.0187
     15 C11        13.7789    5.1738   15.5044 C.ar    1  <0>1       -0.0231
     16 C12        14.7357    6.1427   15.4932 C.ar    1  <0>1        0.0199
     17 N2         14.1453    7.3376   15.2621 N.ar    1  <0>1       -0.3579
     18 H1         14.6010    8.1916   15.1995 H       1  <0>1        0.1656
     19 C13        16.2070    5.8739   15.7046 C.3     1  <0>1       -0.0122
     20 C14        16.3600    4.4819   16.3286 C.3     1  <0>1       -0.0474
     21 C15        15.5578    3.4642   15.5132 C.3     1  <0>1       -0.0487
     22 C16        14.0586    3.7079   15.7248 C.3     1  <0>1       -0.0257
     23 C17        11.2089    5.0906   15.2119 C.3     1  <0>1       -0.0154
     24 C18        10.9235    4.6738   13.7677 C.3     1  <0>1        0.0488
     25 C19         9.5848    3.9852   13.6988 C.2     1  <0>1        0.3050
     26 O3          8.9266    3.8424   14.7020 O.2     1  <0>1       -0.2510
     27 C20        13.0061    9.8464   16.3701 C.2     1  <0>1        0.2490
     28 O4         13.8876    9.1546   16.8483 O.2     1  <0>1       -0.2698
     29 N3         12.8026   11.1508   16.6208 N.am    1  <0>1       -0.2809
     30 H2          9.5821   14.1054   15.0237 H       1  <0>1        0.0638
     31 H3         11.5485   13.7109   16.4382 H       1  <0>1        0.0637
     32 H4          9.6231   10.0335   13.7592 H       1  <0>1        0.0644
     33 H5          6.8357   11.8202   15.1333 H       1  <0>1        0.1442
     34 H6          5.8518   12.2157   13.8301 H       1  <0>1        0.1442
     35 H7         10.9469    7.9065   14.2925 H       1  <0>1        0.0646
     36 H8         16.6245    6.6248   16.3753 H       1  <0>1        0.0328
     37 H9         16.7272    5.9063   14.7473 H       1  <0>1        0.0328
     38 H10        15.9883    4.5003   17.3531 H       1  <0>1        0.0269
     39 H11        17.4123    4.1980   16.3294 H       1  <0>1        0.0269
     40 H12        15.8117    2.4558   15.8397 H       1  <0>1        0.0269
     41 H13        15.7983    3.5752   14.4558 H       1  <0>1        0.0269
     42 H14        13.7814    3.4301   16.7418 H       1  <0>1        0.0314
     43 H15        13.4860    3.1138   15.0126 H       1  <0>1        0.0314
     44 H16        11.2218    4.2066   15.8495 H       1  <0>1        0.0319
     45 H17        10.4310    5.7735   15.5535 H       1  <0>1        0.0319
     46 H18        10.9105    5.5579   13.1303 H       1  <0>1        0.0381
     47 H19        11.7014    3.9910   13.4262 H       1  <0>1        0.0381
     48 H20        13.3484   11.6841   17.2197 H       1  <0>1        0.1552
     49 O5          9.1237    3.5304   12.5231 O.3     1  <0>1       -0.4806
     50 H           9.6341    3.6412   11.7452 H       1  <0>1        0.2951
@<TRIPOS>BOND
     1     1     6   ar
     2     1     2   ar
     3     1    30    1
     4     2     3   ar
     5     2    31    1
     6     3    29    1
     7     3     4   ar
     8     4     5   ar
     9     4    11    1
    10     5     6   ar
    11     5    32    1
    12     6     7    1
    13     7     8    2
    14     7     9    2
    15     7    10    1
    16    10    33    1
    17    10    34    1
    18    11    12    2
    19    11    27    1
    20    12    13    1
    21    12    35    1
    22    13    17   ar
    23    13    14   ar
    24    14    15   ar
    25    14    23    1
    26    15    22    1
    27    15    16   ar
    28    16    17   ar
    29    16    19    1
    30    17    18    1
    31    19    20    1
    32    19    36    1
    33    19    37    1
    34    20    21    1
    35    20    38    1
    36    20    39    1
    37    21    22    1
    38    21    40    1
    39    21    41    1
    40    22    42    1
    41    22    43    1
    42    23    24    1
    43    23    44    1
    44    23    45    1
    45    24    25    1
    46    24    46    1
    47    24    47    1
    48    25    26    2
    49    25    49    1
    50    27    28    2
    51    27    29   am
    52    29    48    1
    53    49    50    1
@<TRIPOS>MOLECULE
ZINC03815529
 68 72 0 0 0
SMALL
USER_CHARGES

@<TRIPOS>ATOM
      1 C1         11.4828    9.4221   13.6079 C.3     1  <0>1        0.0153
      2 N1         12.0321    9.4353   14.9658 N.ar    1  <0>1       -0.3105
      3 C2         11.4937   10.2770   15.9118 C.ar    1  <0>1        0.0564
      4 C3         10.4324   11.1191   15.6016 C.ar    1  <0>1        0.0026
      5 C4          9.9242   11.9493   16.5909 C.ar    1  <0>1        0.1248
      6 N2         10.4323   11.9506   17.8190 N.ar    1  <0>1       -0.2395
      7 C5         11.4356   11.1735   18.1631 C.ar    1  <0>1        0.0388
      8 C6         12.0091   10.3047   17.2262 C.ar    1  <0>1        0.0175
      9 C7         13.0889    9.4612   17.5791 C.ar    1  <0>1       -0.0382
     10 C8         13.6189    8.6269   16.6328 C.ar    1  <0>1        0.0501
     11 C9         13.0572    8.6190   15.2801 C.ar    1  <0>1        0.2593
     12 O1         13.5214    7.8750   14.4346 O.2     1  <0>1       -0.2670
     13 C10        14.7499    7.7334   16.9757 C.ar    1  <0>1        0.0239
     14 C11        16.0643    8.1711   16.8088 C.ar    1  <0>1        0.0502
     15 C12        17.1140    7.3351   17.1353 C.ar    1  <0>1       -0.0427
     16 C13        16.8647    6.0626   17.6170 C.ar    1  <0>1       -0.0590
     17 C14        15.5641    5.6205   17.7795 C.ar    1  <0>1       -0.0427
     18 C15        14.5052    6.4484   17.4616 C.ar    1  <0>1        0.0502
     19 Cl1        12.8737    5.8914   17.6657 Cl      1  <0>1       -0.0829
     20 Cl2        16.3793    9.7652   16.1977 Cl      1  <0>1       -0.0829
     21 N3          8.8646   12.7941   16.2921 N.pl3   1  <0>1       -0.2994
     22 C16         8.4289   13.7313   17.2363 C.ar    1  <0>1        0.0326
     23 C17         7.0792   14.0434   17.3337 C.ar    1  <0>1       -0.0371
     24 C18         6.6498   14.9648   18.2683 C.ar    1  <0>1       -0.0182
     25 C19         7.5673   15.5857   19.1031 C.ar    1  <0>1        0.1209
     26 C20         8.9162   15.2785   19.0029 C.ar    1  <0>1       -0.0182
     27 C21         9.3468   14.3537   18.0721 C.ar    1  <0>1       -0.0371
     28 O2          7.1441   16.4965   20.0200 O.3     1  <0>1       -0.4867
     29 C22         5.7413   16.7647   20.0683 C.3     1  <0>1        0.1291
     30 C23         5.4582   17.8067   21.1523 C.3     1  <0>1        0.0035
     31 C24         6.2638   19.9367   21.9765 C.3     1  <0>1        0.0096
     32 C25         7.0194   21.2077   21.5814 C.3     1  <0>1        0.0092
     33 C26         6.1324   21.0368   19.3358 C.3     1  <0>1        0.0092
     34 C27         5.3769   19.7658   19.7309 C.3     1  <0>1        0.0096
     35 C28         6.9380   23.1668   20.1601 C.3     1  <0>1       -0.0427
     36 H1         12.0103   10.1532   12.9954 H       1  <0>1        0.0457
     37 H2         11.6063    8.4291   13.1756 H       1  <0>1        0.0457
     38 H3         10.4228    9.6740   13.6424 H       1  <0>1        0.0457
     39 H4         10.0105   11.1276   14.6075 H       1  <0>1        0.0673
     40 H5         11.8190   11.2054   19.1722 H       1  <0>1        0.0837
     41 H6         13.4897    9.4759   18.5819 H       1  <0>1        0.0632
     42 H7         18.1318    7.6743   17.0108 H       1  <0>1        0.0632
     43 H8         17.6891    5.4113   17.8670 H       1  <0>1        0.0618
     44 H9         15.3762    4.6258   18.1560 H       1  <0>1        0.0632
     45 H10         8.4259   12.7352   15.4290 H       1  <0>1        0.1536
     46 H11         6.3652   13.5628   16.6813 H       1  <0>1        0.0637
     47 H12         5.5996   15.2046   18.3470 H       1  <0>1        0.0655
     48 H13         9.6300   15.7629   19.6528 H       1  <0>1        0.0655
     49 H14        10.3971   14.1143   17.9945 H       1  <0>1        0.0637
     50 H15         5.4108   17.1463   19.1022 H       1  <0>1        0.0751
     51 H16         5.2033   15.8451   20.2990 H       1  <0>1        0.0751
     52 H17         4.3828   17.9642   21.2329 H       1  <0>1        0.0848
     53 H18         5.8462   17.4522   22.1072 H       1  <0>1        0.0848
     54 H19         5.2791   20.2033   22.3601 H       1  <0>1        0.0868
     55 H20         6.8230   19.4059   22.7471 H       1  <0>1        0.0868
     56 H21         8.0144   20.9428   21.2234 H       1  <0>1        0.0868
     57 H22         7.1069   21.8629   22.4481 H       1  <0>1        0.0868
     58 H23         7.1172   20.7701   18.9523 H       1  <0>1        0.0868
     59 H24         5.5734   21.5674   18.5650 H       1  <0>1        0.0868
     60 H25         5.2893   19.1106   18.8643 H       1  <0>1        0.0868
     61 H26         4.3818   20.0303   20.0888 H       1  <0>1        0.0868
     62 H27         6.3368   23.6910   19.4173 H       1  <0>1        0.0778
     63 H28         7.0370   23.7869   21.0510 H       1  <0>1        0.0778
     64 H29         7.9263   22.9616   19.7486 H       1  <0>1        0.0778
     65 N4          6.1390   19.0676   20.7876 N.4     1  <0>1        0.2451
     66 H30         7.0777   18.8495   20.4335 H       1  <0>1        0.2039
     67 N5          6.2574   21.9059   20.5249 N.4     1  <0>1        0.2405
     68 H31         5.3186   22.1240   20.8792 H       1  <0>1        0.2035
@<TRIPOS>BOND
     1     1     2    1
     2     1    36    1
     3     1    37    1
     4     1    38    1
     5     2    11   ar
     6     2     3   ar
     7     3     8   ar
     8     3     4   ar
     9     4     5   ar
    10     4    39    1
    11     5     6   ar
    12     5    21    1
    13     6     7   ar
    14     7     8   ar
    15     7    40    1
    16     8     9   ar
    17     9    10   ar
    18     9    41    1
    19    10    11   ar
    20    10    13    1
    21    11    12    2
    22    13    18   ar
    23    13    14   ar
    24    14    15   ar
    25    14    20    1
    26    15    16   ar
    27    15    42    1
    28    16    17   ar
    29    16    43    1
    30    17    18   ar
    31    17    44    1
    32    18    19    1
    33    21    22    1
    34    21    45    1
    35    22    27   ar
    36    22    23   ar
    37    23    24   ar
    38    23    46    1
    39    24    25   ar
    40    24    47    1
    41    25    26   ar
    42    25    28    1
    43    26    27   ar
    44    26    48    1
    45    27    49    1
    46    28    29    1
    47    29    30    1
    48    29    50    1
    49    29    51    1
    50    30    52    1
    51    30    53    1
    52    30    65    1
    53    31    32    1
    54    31    54    1
    55    31    55    1
    56    31    65    1
    57    32    56    1
    58    32    57    1
    59    32    67    1
    60    33    34    1
    61    33    58    1
    62    33    59    1
    63    33    67    1
    64    34    60    1
    65    34    61    1
    66    34    65    1
    67    35    62    1
    68    35    63    1
    69    35    64    1
    70    35    67    1
    71    65    66    1
    72    67    68    1
@<TRIPOS>MOLECULE
ZINC03815532
 48 51 0 0 0
SMALL
USER_CHARGES

@<TRIPOS>ATOM
      1 C1         10.1240   12.2772   14.9680 C.ar    1  <0>1       -0.0460
      2 C2         11.0442   11.6897   14.1313 C.ar    1  <0>1       -0.0391
      3 C3         11.6641   10.4959   14.4948 C.ar    1  <0>1        0.0416
      4 C4         11.3350    9.8959   15.7214 C.ar    1  <0>1        0.0091
      5 C5         10.4040   10.4828   16.5648 C.ar    1  <0>1       -0.0381
      6 C6          9.7907   11.6792   16.1887 C.ar    1  <0>1        0.0595
      7 C7          8.7986   12.3133   17.0770 C.2     1  <0>1        0.3368
      8 O1          8.5139   11.7944   18.1381 O.2     1  <0>1       -0.2451
      9 C8         12.1491    8.6627   15.8125 C.2     1  <0>1        0.0479
     10 C9         12.1679    7.7412   16.8417 C.2     1  <0>1       -0.0253
     11 C10        12.8887    6.5377   16.6975 C.ar    1  <0>1        0.0437
     12 C11        13.5513    5.8516   17.7061 C.ar    1  <0>1       -0.0187
     13 C12        14.1219    4.7257   17.1232 C.ar    1  <0>1       -0.0231
     14 C13        13.8126    4.7322   15.7972 C.ar    1  <0>1        0.0199
     15 N1         13.0592    5.8234   15.5294 N.ar    1  <0>1       -0.3579
     16 H1         12.7007    6.0644   14.6609 H       1  <0>1        0.1656
     17 C14        14.2588    3.6662   14.8246 C.3     1  <0>1       -0.0122
     18 C15        15.4062    2.8763   15.4649 C.3     1  <0>1       -0.0474
     19 C16        14.9997    2.4336   16.8730 C.3     1  <0>1       -0.0487
     20 C17        14.9452    3.6561   17.7971 C.3     1  <0>1       -0.0257
     21 C18        13.6366    6.2514   19.1565 C.3     1  <0>1       -0.0154
     22 C19        12.4658    5.6354   19.9251 C.3     1  <0>1        0.0488
     23 C20        12.5511    6.0352   21.3756 C.2     1  <0>1        0.3050
     24 O2         13.4555    6.7406   21.7557 O.2     1  <0>1       -0.2510
     25 C21        12.9322    8.6320   14.5706 C.2     1  <0>1        0.2490
     26 O3         13.7342    7.7724   14.2516 O.2     1  <0>1       -0.2698
     27 N2         12.6097    9.7176   13.8478 N.am    1  <0>1       -0.2809
     28 H2          9.6527   13.2051   14.6794 H       1  <0>1        0.0626
     29 H3         11.2908   12.1584   13.1902 H       1  <0>1        0.0636
     30 H4         10.1546   10.0169   17.5067 H       1  <0>1        0.0632
     31 H5         11.6307    7.9426   17.7567 H       1  <0>1        0.0646
     32 H6         14.6044    4.1327   13.9020 H       1  <0>1        0.0328
     33 H7         13.4273    2.9954   14.6082 H       1  <0>1        0.0328
     34 H8         16.2929    3.5075   15.5245 H       1  <0>1        0.0269
     35 H9         15.6259    1.9982   14.8575 H       1  <0>1        0.0269
     36 H10        15.7309    1.7214   17.2554 H       1  <0>1        0.0269
     37 H11        14.0178    1.9618   16.8363 H       1  <0>1        0.0269
     38 H12        15.9546    4.0273   17.9749 H       1  <0>1        0.0314
     39 H13        14.4830    3.3797   18.7448 H       1  <0>1        0.0314
     40 H14        14.5761    5.8935   19.5775 H       1  <0>1        0.0319
     41 H15        13.5928    7.3375   19.2372 H       1  <0>1        0.0319
     42 H16        11.5263    5.9934   19.5042 H       1  <0>1        0.0381
     43 H17        12.5095    4.5492   19.8444 H       1  <0>1        0.0381
     44 H18        12.9913    9.9297   12.9816 H       1  <0>1        0.1552
     45 O4          8.2080   13.4680   16.7118 O.3     1  <0>1       -0.4771
     46 O5         11.6223    5.6078   22.2453 O.3     1  <0>1       -0.4806
     47 H           8.4276   13.8681   15.8934 H       1  <0>1        0.2954
     48 H          10.9210    5.0608   21.9506 H       1  <0>1        0.2951
@<TRIPOS>BOND
     1     1     6   ar
     2     1     2   ar
     3     1    28    1
     4     2     3   ar
     5     2    29    1
     6     3    27    1
     7     3     4   ar
     8     4     5   ar
     9     4     9    1
    10     5     6   ar
    11     5    30    1
    12     6     7    1
    13     7     8    2
    14     7    45    1
    15     9    10    2
    16     9    25    1
    17    10    11    1
    18    10    31    1
    19    11    15   ar
    20    11    12   ar
    21    12    13   ar
    22    12    21    1
    23    13    20    1
    24    13    14   ar
    25    14    15   ar
    26    14    17    1
    27    15    16    1
    28    17    18    1
    29    17    32    1
    30    17    33    1
    31    18    19    1
    32    18    34    1
    33    18    35    1
    34    19    20    1
    35    19    36    1
    36    19    37    1
    37    20    38    1
    38    20    39    1
    39    21    22    1
    40    21    40    1
    41    21    41    1
    42    22    23    1
    43    22    42    1
    44    22    43    1
    45    23    24    2
    46    23    46    1
    47    25    26    2
    48    25    27   am
    49    27    44    1
    50    45    47    1
    51    46    48    1
@<TRIPOS>MOLECULE
ZINC03815535
 65 68 0 0 0
SMALL
USER_CHARGES

@<TRIPOS>ATOM
      1 C1          9.3309   10.9002   16.8701 C.3     1  <0>1        0.0167
      2 N1          9.9949   11.5796   15.7549 N.ar    1  <0>1       -0.2953
      3 C2         10.9626   10.9220   15.0384 C.ar    1  <0>1        0.1482
      4 C3         11.6119   11.5622   13.9607 C.ar    1  <0>1        0.0365
      5 C4         11.2691   12.8881   13.6100 C.ar    1  <0>1       -0.0366
      6 C5         10.3023   13.5363   14.3307 C.ar    1  <0>1        0.0502
      7 C6          9.6487   12.8435   15.4432 C.ar    1  <0>1        0.2604
      8 O1          8.7875   13.4128   16.0897 O.2     1  <0>1       -0.2670
      9 C7          9.9208   14.9265   13.9885 C.ar    1  <0>1        0.0239
     10 C8         10.5800   16.0014   14.5863 C.ar    1  <0>1        0.0502
     11 C9         10.2229   17.2948   14.2593 C.ar    1  <0>1       -0.0427
     12 C10         9.2074   17.5260   13.3490 C.ar    1  <0>1       -0.0590
     13 C11         8.5464   16.4649   12.7566 C.ar    1  <0>1       -0.0427
     14 C12         8.8970   15.1666   13.0713 C.ar    1  <0>1        0.0502
     15 Cl1         8.0655   13.8364   12.3278 Cl      1  <0>1       -0.0829
     16 Cl2        11.8503   15.7133   15.7340 Cl      1  <0>1       -0.0829
     17 C13        12.5959   10.8547   13.2543 C.ar    1  <0>1        0.0418
     18 N2         12.8787    9.6211   13.6292 N.ar    1  <0>1       -0.2222
     19 C14        12.2433    9.0484   14.6456 C.ar    1  <0>1        0.2170
     20 N3         11.3080    9.6758   15.3419 N.ar    1  <0>1       -0.1964
     21 N4         12.5742    7.7536   14.9922 N.pl3   1  <0>1       -0.3134
     22 C15        13.6053    7.0347   14.2397 C.3     1  <0>1        0.0118
     23 C16        13.7772    5.6310   14.8236 C.3     1  <0>1       -0.0372
     24 C17        14.8541    4.8802   14.0378 C.3     1  <0>1       -0.0468
     25 C18        15.0260    3.4765   14.6217 C.3     1  <0>1       -0.0125
     26 C19        16.1029    2.7257   13.8358 C.3     1  <0>1       -0.0315
     27 C20        16.8127    1.4378   15.7600 C.3     1  <0>1        0.0094
     28 C21        16.8947    0.0223   16.3363 C.3     1  <0>1        0.0092
     29 C22        17.1977   -0.8683   14.1062 C.3     1  <0>1        0.0092
     30 C23        17.1157    0.5472   13.5297 C.3     1  <0>1        0.0094
     31 C24        17.9076   -2.1561   16.0304 C.3     1  <0>1       -0.0427
     32 H1          9.8843   11.0867   17.7906 H       1  <0>1        0.0457
     33 H2          8.3145   11.2801   16.9738 H       1  <0>1        0.0457
     34 H3          9.3000    9.8281   16.6757 H       1  <0>1        0.0457
     35 H4         11.7623   13.3821   12.7859 H       1  <0>1        0.0633
     36 H5         10.7347   18.1276   14.7185 H       1  <0>1        0.0632
     37 H6          8.9291   18.5394   13.0997 H       1  <0>1        0.0618
     38 H7          7.7541   16.6521   12.0469 H       1  <0>1        0.0632
     39 H8         13.1142   11.3112   12.4240 H       1  <0>1        0.0838
     40 H9         12.1240    7.3200   15.7339 H       1  <0>1        0.1489
     41 H10        14.5492    7.5753   14.3092 H       1  <0>1        0.0462
     42 H11        13.3059    6.9592   13.1943 H       1  <0>1        0.0462
     43 H12        14.0766    5.7064   15.8690 H       1  <0>1        0.0280
     44 H13        12.8333    5.0904   14.7541 H       1  <0>1        0.0280
     45 H14        14.5548    4.8046   12.9924 H       1  <0>1        0.0268
     46 H15        15.7981    5.4208   14.1073 H       1  <0>1        0.0268
     47 H16        15.3254    3.5519   15.6670 H       1  <0>1        0.0317
     48 H17        14.0821    2.9358   14.5521 H       1  <0>1        0.0317
     49 H18        15.8036    2.6501   12.7904 H       1  <0>1        0.0814
     50 H19        17.0468    3.2662   13.9053 H       1  <0>1        0.0814
     51 H20        17.8094    1.8783   15.7344 H       1  <0>1        0.0868
     52 H21        16.1610    2.0479   16.3854 H       1  <0>1        0.0868
     53 H22        15.8946   -0.4081   16.3873 H       1  <0>1        0.0868
     54 H23        17.3255    0.0614   17.3369 H       1  <0>1        0.0868
     55 H24        16.2011   -1.3088   14.1318 H       1  <0>1        0.0868
     56 H25        17.8491   -1.4785   13.4805 H       1  <0>1        0.0868
     57 H26        16.6850    0.5080   12.5292 H       1  <0>1        0.0868
     58 H27        18.1159    0.9776   13.4789 H       1  <0>1        0.0868
     59 H28        18.5929   -2.7282   15.4050 H       1  <0>1        0.0778
     60 H29        18.3121   -2.0826   17.0399 H       1  <0>1        0.0778
     61 H30        16.9402   -2.6574   16.0622 H       1  <0>1        0.0778
     62 N5         16.2431    1.3654   14.3981 N.4     1  <0>1        0.2427
     63 H31        15.3157    0.9274   14.4470 H       1  <0>1        0.2038
     64 N6         17.7674   -0.7958   15.4682 N.4     1  <0>1        0.2405
     65 H32        18.6948   -0.3578   15.4194 H       1  <0>1        0.2035
@<TRIPOS>BOND
     1     1     2    1
     2     1    32    1
     3     1    33    1
     4     1    34    1
     5     2     7   ar
     6     2     3   ar
     7     3    20   ar
     8     3     4   ar
     9     4     5   ar
    10     4    17   ar
    11     5     6   ar
    12     5    35    1
    13     6     7   ar
    14     6     9    1
    15     7     8    2
    16     9    14   ar
    17     9    10   ar
    18    10    11   ar
    19    10    16    1
    20    11    12   ar
    21    11    36    1
    22    12    13   ar
    23    12    37    1
    24    13    14   ar
    25    13    38    1
    26    14    15    1
    27    17    18   ar
    28    17    39    1
    29    18    19   ar
    30    19    20   ar
    31    19    21    1
    32    21    22    1
    33    21    40    1
    34    22    23    1
    35    22    41    1
    36    22    42    1
    37    23    24    1
    38    23    43    1
    39    23    44    1
    40    24    25    1
    41    24    45    1
    42    24    46    1
    43    25    26    1
    44    25    47    1
    45    25    48    1
    46    26    49    1
    47    26    50    1
    48    26    62    1
    49    27    28    1
    50    27    51    1
    51    27    52    1
    52    27    62    1
    53    28    53    1
    54    28    54    1
    55    28    64    1
    56    29    30    1
    57    29    55    1
    58    29    56    1
    59    29    64    1
    60    30    57    1
    61    30    58    1
    62    30    62    1
    63    31    59    1
    64    31    60    1
    65    31    61    1
    66    31    64    1
    67    62    63    1
    68    64    65    1
@<TRIPOS>MOLECULE
ZINC03815536
 67 70 0 0 0
SMALL
USER_CHARGES

@<TRIPOS>ATOM
      1 C1          2.1477   20.2284   22.4304 C.3     1  <0>1       -0.0245
      2 C2          2.8151   19.6950   21.1613 C.3     1  <0>1       -0.0348
      3 C3          0.7238   18.9221   20.2172 C.3     1  <0>1       -0.0348
      4 C4         -0.1856   17.6917   20.1994 C.3     1  <0>1       -0.0245
      5 C5          2.8031   17.8497   19.5936 C.3     1  <0>1       -0.0288
      6 C6          3.9380   17.0222   20.2003 C.3     1  <0>1        0.0217
      7 C7          4.7260   16.3391   19.0808 C.3     1  <0>1        0.0944
      8 O1          5.7859   15.5661   19.6475 O.3     1  <0>1       -0.4918
      9 C8          6.5880   14.8901   18.7821 C.ar    1  <0>1        0.1206
     10 C9          7.6360   14.1204   19.2653 C.ar    1  <0>1       -0.0182
     11 C10         8.4512   13.4339   18.3872 C.ar    1  <0>1       -0.0371
     12 C11         8.2213   13.5140   17.0199 C.ar    1  <0>1        0.0326
     13 C12         7.1751   14.2890   16.5367 C.ar    1  <0>1       -0.0371
     14 C13         6.3579   14.9709   17.4165 C.ar    1  <0>1       -0.0182
     15 N1          9.0472   12.8184   16.1290 N.pl3   1  <0>1       -0.2994
     16 C14         9.5149   11.5545   16.4593 C.ar    1  <0>1        0.1248
     17 C15        10.4295   10.9275   15.6241 C.ar    1  <0>1        0.0026
     18 C16        10.8913    9.6619   15.9644 C.ar    1  <0>1        0.0564
     19 C17        10.4063    9.0680   17.1506 C.ar    1  <0>1        0.0175
     20 C18        10.8543    7.7805   17.5297 C.ar    1  <0>1       -0.0382
     21 C19        11.7564    7.1283   16.7339 C.ar    1  <0>1        0.0501
     22 C20        12.2337    7.7696   15.5065 C.ar    1  <0>1        0.2593
     23 O2         13.0321    7.1915   14.7909 O.2     1  <0>1       -0.2670
     24 N2         11.7977    8.9991   15.1691 N.ar    1  <0>1       -0.3105
     25 C21        12.2883    9.6329   13.9427 C.3     1  <0>1        0.0153
     26 C22        12.2413    5.7791   17.1072 C.ar    1  <0>1        0.0239
     27 C23        13.3813    5.6387   17.8997 C.ar    1  <0>1        0.0502
     28 C24        13.8245    4.3782   18.2494 C.ar    1  <0>1       -0.0427
     29 C25        13.1479    3.2561   17.8059 C.ar    1  <0>1       -0.0590
     30 C26        12.0207    3.3882   17.0150 C.ar    1  <0>1       -0.0427
     31 C27        11.5634    4.6431   16.6632 C.ar    1  <0>1        0.0502
     32 Cl1        10.1487    4.8067   15.6705 Cl      1  <0>1       -0.0829
     33 Cl2        14.2363    7.0454   18.4509 Cl      1  <0>1       -0.0829
     34 C28         9.4840    9.7714   17.9348 C.ar    1  <0>1        0.0388
     35 N3          9.0782   10.9675   17.5685 N.ar    1  <0>1       -0.2395
     36 H1          2.7029   21.0915   22.7977 H       1  <0>1        0.0281
     37 H2          1.1231   20.5245   22.2051 H       1  <0>1        0.0281
     38 H3          2.1415   19.4492   23.1926 H       1  <0>1        0.0281
     39 H4          3.8397   19.3989   21.3866 H       1  <0>1        0.0812
     40 H5          2.8213   20.4742   20.3990 H       1  <0>1        0.0812
     41 H6          0.3144   19.6666   20.8999 H       1  <0>1        0.0812
     42 H7          0.7844   19.3436   19.2138 H       1  <0>1        0.0812
     43 H8          0.2611   16.9188   19.5740 H       1  <0>1        0.0281
     44 H9         -0.3052   17.3136   21.2147 H       1  <0>1        0.0281
     45 H10        -1.1606   17.9664   19.7969 H       1  <0>1        0.0281
     46 H11         3.2188   18.5903   18.9104 H       1  <0>1        0.0815
     47 H12         2.1255   17.1925   19.0487 H       1  <0>1        0.0815
     48 H13         3.5208   16.2655   20.8649 H       1  <0>1        0.0350
     49 H14         4.6024   17.6758   20.7656 H       1  <0>1        0.0350
     50 H15         5.1432   17.0956   18.4163 H       1  <0>1        0.0698
     51 H16         4.0617   15.6854   18.5156 H       1  <0>1        0.0698
     52 H17         7.8146   14.0583   20.3286 H       1  <0>1        0.0655
     53 H18         9.2671   12.8348   18.7636 H       1  <0>1        0.0637
     54 H19         6.9984   14.3553   15.4733 H       1  <0>1        0.0637
     55 H20         5.5420   15.5707   17.0411 H       1  <0>1        0.0655
     56 H21         9.2925   13.2200   15.2809 H       1  <0>1        0.1536
     57 H22        10.7767   11.4154   14.7252 H       1  <0>1        0.0673
     58 H23        10.4892    7.3187   18.4351 H       1  <0>1        0.0632
     59 H24        13.1830   10.2137   14.1667 H       1  <0>1        0.0457
     60 H25        12.5284    8.8645   13.2078 H       1  <0>1        0.0457
     61 H26        11.5185   10.2918   13.5413 H       1  <0>1        0.0457
     62 H27        14.7039    4.2682   18.8667 H       1  <0>1        0.0632
     63 H28        13.5013    2.2726   18.0782 H       1  <0>1        0.0618
     64 H29        11.4970    2.5081   16.6720 H       1  <0>1        0.0632
     65 H30         9.1040    9.3296   18.8441 H       1  <0>1        0.0837
     66 N4          2.0639   18.5133   20.6880 N.4     1  <0>1        0.2349
     67 H31         1.9566   17.8526   21.4666 H       1  <0>1        0.2033
@<TRIPOS>BOND
     1     1     2    1
     2     1    36    1
     3     1    37    1
     4     1    38    1
     5     2    39    1
     6     2    40    1
     7     2    66    1
     8     3     4    1
     9     3    41    1
    10     3    42    1
    11     3    66    1
    12     4    43    1
    13     4    44    1
    14     4    45    1
    15     5     6    1
    16     5    46    1
    17     5    47    1
    18     5    66    1
    19     6     7    1
    20     6    48    1
    21     6    49    1
    22     7     8    1
    23     7    50    1
    24     7    51    1
    25     8     9    1
    26     9    14   ar
    27     9    10   ar
    28    10    11   ar
    29    10    52    1
    30    11    12   ar
    31    11    53    1
    32    12    13   ar
    33    12    15    1
    34    13    14   ar
    35    13    54    1
    36    14    55    1
    37    15    16    1
    38    15    56    1
    39    16    35   ar
    40    16    17   ar
    41    17    18   ar
    42    17    57    1
    43    18    24   ar
    44    18    19   ar
    45    19    20   ar
    46    19    34   ar
    47    20    21   ar
    48    20    58    1
    49    21    22   ar
    50    21    26    1
    51    22    23    2
    52    22    24   ar
    53    24    25    1
    54    25    59    1
    55    25    60    1
    56    25    61    1
    57    26    31   ar
    58    26    27   ar
    59    27    28   ar
    60    27    33    1
    61    28    29   ar
    62    28    62    1
    63    29    30   ar
    64    29    63    1
    65    30    31   ar
    66    30    64    1
    67    31    32    1
    68    34    35   ar
    69    34    65    1
    70    66    67    1
@<TRIPOS>MOLECULE
ZINC03815537
 45 48 0 0 0
SMALL
USER_CHARGES

@<TRIPOS>ATOM
      1 C1          7.8815   12.2153   14.9737 C.ar    1  <0>1       -0.0460
      2 C2          9.0305   12.3017   15.7337 C.ar    1  <0>1       -0.0388
      3 C3          9.9105   11.2271   15.7928 C.ar    1  <0>1        0.0416
      4 C4          9.6162   10.0641   15.0674 C.ar    1  <0>1        0.0094
      5 C5          8.4523    9.9837   14.3102 C.ar    1  <0>1       -0.0381
      6 C6          7.5901   11.0619   14.2634 C.ar    1  <0>1        0.0186
      7 Br1         6.0107   10.9640   13.2282 Br      1  <0>1       -0.0503
      8 C7         10.7208    9.1162   15.3335 C.2     1  <0>1        0.0479
      9 C8         10.8662    7.8346   14.8377 C.2     1  <0>1       -0.0253
     10 C9         12.0620    7.1223   15.0645 C.ar    1  <0>1        0.0437
     11 C10        12.1795    5.7507   15.2422 C.ar    1  <0>1       -0.0187
     12 C11        13.5304    5.4803   15.4288 C.ar    1  <0>1       -0.0231
     13 C12        14.2108    6.6581   15.3662 C.ar    1  <0>1        0.0199
     14 N1         13.3300    7.6606   15.1445 N.ar    1  <0>1       -0.3579
     15 H1         13.5527    8.6005   15.0558 H       1  <0>1        0.1656
     16 C13        15.7083    6.7736   15.5264 C.3     1  <0>1       -0.0122
     17 C14        16.2278    5.4808   16.1664 C.3     1  <0>1       -0.0474
     18 C15        15.6824    4.2741   15.3981 C.3     1  <0>1       -0.0487
     19 C16        14.1779    4.1378   15.6619 C.3     1  <0>1       -0.0257
     20 C17        11.0565    4.7457   15.2343 C.3     1  <0>1       -0.0154
     21 C18        10.8394    4.2348   13.8084 C.3     1  <0>1        0.0488
     22 C19         9.7164    3.2299   13.8005 C.2     1  <0>1        0.3050
     23 O1          9.1479    2.9510   14.8296 O.2     1  <0>1       -0.2510
     24 C20        11.6323    9.8344   16.2336 C.2     1  <0>1        0.2490
     25 O2         12.6762    9.4021   16.6892 O.2     1  <0>1       -0.2698
     26 N2         11.1135   11.0520   16.4663 N.am    1  <0>1       -0.2809
     27 H2          7.2030   13.0546   14.9326 H       1  <0>1        0.0629
     28 H3          9.2465   13.2061   16.2832 H       1  <0>1        0.0637
     29 H4          8.2262    9.0841   13.7571 H       1  <0>1        0.0635
     30 H5         10.0642    7.3786   14.2764 H       1  <0>1        0.0646
     31 H6         15.9444    7.6217   16.1690 H       1  <0>1        0.0328
     32 H7         16.1723    6.9118   14.5499 H       1  <0>1        0.0328
     33 H8         15.8969    5.4306   17.2037 H       1  <0>1        0.0269
     34 H9         17.3172    5.4709   16.1321 H       1  <0>1        0.0269
     35 H10        16.1930    3.3704   15.7308 H       1  <0>1        0.0269
     36 H11        15.8527    4.4156   14.3308 H       1  <0>1        0.0269
     37 H12        14.0129    3.8247   16.6929 H       1  <0>1        0.0314
     38 H13        13.7510    3.4012   14.9813 H       1  <0>1        0.0314
     39 H14        11.3126    3.9095   15.8848 H       1  <0>1        0.0319
     40 H15        10.1428    5.2191   15.5936 H       1  <0>1        0.0319
     41 H16        10.5833    5.0710   13.1579 H       1  <0>1        0.0381
     42 H17        11.7531    3.7614   13.4491 H       1  <0>1        0.0381
     43 H18        11.5264   11.7233   17.0318 H       1  <0>1        0.1552
     44 O3          9.3476    2.6447   12.6502 O.3     1  <0>1       -0.4806
     45 H           9.7884    2.8610   11.8522 H       1  <0>1        0.2951
@<TRIPOS>BOND
     1     1     6   ar
     2     1     2   ar
     3     1    27    1
     4     2     3   ar
     5     2    28    1
     6     3    26    1
     7     3     4   ar
     8     4     5   ar
     9     4     8    1
    10     5     6   ar
    11     5    29    1
    12     6     7    1
    13     8     9    2
    14     8    24    1
    15     9    10    1
    16     9    30    1
    17    10    14   ar
    18    10    11   ar
    19    11    12   ar
    20    11    20    1
    21    12    19    1
    22    12    13   ar
    23    13    14   ar
    24    13    16    1
    25    14    15    1
    26    16    17    1
    27    16    31    1
    28    16    32    1
    29    17    18    1
    30    17    33    1
    31    17    34    1
    32    18    19    1
    33    18    35    1
    34    18    36    1
    35    19    37    1
    36    19    38    1
    37    20    21    1
    38    20    39    1
    39    20    40    1
    40    21    22    1
    41    21    41    1
    42    21    42    1
    43    22    23    2
    44    22    44    1
    45    24    25    2
    46    24    26   am
    47    26    43    1
    48    44    45    1
@<TRIPOS>MOLECULE
ZINC03815538
 45 48 0 0 0
SMALL
USER_CHARGES

@<TRIPOS>ATOM
      1 C1          7.4275    3.9663   14.5438 C.ar    1  <0>1       -0.0611
      2 C2          8.0518    3.0473   15.3711 C.ar    1  <0>1       -0.0600
      3 C3          9.3416    3.2611   15.8128 C.ar    1  <0>1       -0.0399
      4 C4         10.0298    4.4069   15.4286 C.ar    1  <0>1        0.0416
      5 C5          9.3950    5.3341   14.5911 C.ar    1  <0>1        0.0084
      6 C6          8.0944    5.1090   14.1512 C.ar    1  <0>1       -0.0521
      7 C7         10.3679    6.4258   14.3646 C.2     1  <0>1        0.0479
      8 C8         10.1910    7.5644   13.6022 C.2     1  <0>1       -0.0253
      9 C9         11.1649    8.5842   13.6213 C.ar    1  <0>1        0.0437
     10 C10        11.5055    9.4143   12.5621 C.ar    1  <0>1       -0.0187
     11 C11        12.5046   10.2660   13.0196 C.ar    1  <0>1       -0.0231
     12 C12        12.7610    9.9578   14.3209 C.ar    1  <0>1        0.0199
     13 N1         11.9495    8.9434   14.6982 N.ar    1  <0>1       -0.3579
     14 H1         11.9249    8.5352   15.5777 H       1  <0>1        0.1656
     15 C13        13.7926   10.6677   15.1655 C.3     1  <0>1       -0.0122
     16 C14        14.7347   11.4381   14.2330 C.3     1  <0>1       -0.0474
     17 C15        13.9112   12.2792   13.2541 C.3     1  <0>1       -0.0487
     18 C16        13.2103   11.3553   12.2507 C.3     1  <0>1       -0.0257
     19 C17        10.9063    9.3958   11.1795 C.3     1  <0>1       -0.0154
     20 C18         9.7023   10.3386   11.1328 C.3     1  <0>1        0.0488
     21 C19         9.1031   10.3201    9.7500 C.2     1  <0>1        0.3050
     22 O1          9.5893    9.6241    8.8902 O.2     1  <0>1       -0.2510
     23 C20        11.5644    6.0339   15.1205 C.2     1  <0>1        0.2490
     24 O2         12.6041    6.6647   15.1924 O.2     1  <0>1       -0.2698
     25 N2         11.3102    4.8594   15.7221 N.am    1  <0>1       -0.2809
     26 H2          6.4177    3.7881   14.2050 H       1  <0>1        0.0618
     27 H3          7.5238    2.1551   15.6738 H       1  <0>1        0.0618
     28 H4          9.8175    2.5370   16.4575 H       1  <0>1        0.0636
     29 H5          7.6085    5.8257   13.5058 H       1  <0>1        0.0624
     30 H6          9.3047    7.6755   12.9951 H       1  <0>1        0.0646
     31 H7         14.3617    9.9373   15.7406 H       1  <0>1        0.0328
     32 H8         13.2969   11.3632   15.8427 H       1  <0>1        0.0328
     33 H9         15.3513   10.7326   13.6761 H       1  <0>1        0.0269
     34 H10        15.3756   12.0924   14.8240 H       1  <0>1        0.0269
     35 H11        14.5701   12.9634   12.7193 H       1  <0>1        0.0269
     36 H12        13.1642   12.8506   13.8052 H       1  <0>1        0.0269
     37 H13        13.9483   10.9132   11.5813 H       1  <0>1        0.0314
     38 H14        12.4839   11.9257   11.6718 H       1  <0>1        0.0314
     39 H15        11.6526    9.7233   10.4556 H       1  <0>1        0.0319
     40 H16        10.5845    8.3831   10.9365 H       1  <0>1        0.0319
     41 H17         8.9560   10.0111   11.8565 H       1  <0>1        0.0381
     42 H18        10.0242   11.3512   11.3757 H       1  <0>1        0.0381
     43 H19        11.9420    4.3854   16.2853 H       1  <0>1        0.1552
     44 O3          8.0294   11.0767    9.4738 O.3     1  <0>1       -0.4806
     45 H           7.6525   11.6164   10.1406 H       1  <0>1        0.2951
@<TRIPOS>BOND
     1     1     6   ar
     2     1     2   ar
     3     1    26    1
     4     2     3   ar
     5     2    27    1
     6     3     4   ar
     7     3    28    1
     8     4    25    1
     9     4     5   ar
    10     5     6   ar
    11     5     7    1
    12     6    29    1
    13     7     8    2
    14     7    23    1
    15     8     9    1
    16     8    30    1
    17     9    13   ar
    18     9    10   ar
    19    10    11   ar
    20    10    19    1
    21    11    18    1
    22    11    12   ar
    23    12    13   ar
    24    12    15    1
    25    13    14    1
    26    15    16    1
    27    15    31    1
    28    15    32    1
    29    16    17    1
    30    16    33    1
    31    16    34    1
    32    17    18    1
    33    17    35    1
    34    17    36    1
    35    18    37    1
    36    18    38    1
    37    19    20    1
    38    19    39    1
    39    19    40    1
    40    20    21    1
    41    20    41    1
    42    20    42    1
    43    21    22    2
    44    21    44    1
    45    23    24    2
    46    23    25   am
    47    25    43    1
    48    44    45    1
@<TRIPOS>MOLECULE
ZINC03815545
 60 63 0 0 0
SMALL
USER_CHARGES

@<TRIPOS>ATOM
      1 C1          6.3311   15.4700   22.6037 C.3     1  <0>1       -0.0244
      2 C2          4.9477   15.8565   22.0768 C.3     1  <0>1       -0.0315
      3 C3          3.5140   15.5475   20.1502 C.3     1  <0>1       -0.0315
      4 C4          2.9179   14.2102   20.5942 C.3     1  <0>1       -0.0244
      5 C5          5.6245   16.7107   19.9147 C.3     1  <0>1        0.1169
      6 O1          7.0255   16.4298   19.9356 O.3     1  <0>1       -0.4543
      7 C6          7.4871   15.5244   19.0323 C.ar    1  <0>1        0.1264
      8 C7          8.8367   15.2054   18.9982 C.ar    1  <0>1       -0.0180
      9 C8          9.3063   14.2859   18.0812 C.ar    1  <0>1       -0.0370
     10 C9          8.4272   13.6806   17.1929 C.ar    1  <0>1        0.0338
     11 C10         7.0763   14.0005   17.2276 C.ar    1  <0>1       -0.0370
     12 C11         6.6084   14.9204   18.1450 C.ar    1  <0>1       -0.0180
     13 N1          8.9026   12.7485   16.2624 N.pl3   1  <0>1       -0.2836
     14 C12         9.9571   11.9197   16.5922 C.ar    1  <0>1        0.2214
     15 N2         10.4344   11.9536   17.8320 N.ar    1  <0>1       -0.2219
     16 C13        11.4404   11.1822   18.1980 C.ar    1  <0>1        0.0418
     17 C14        12.0036   10.3168   17.2474 C.ar    1  <0>1        0.0365
     18 C15        13.0824    9.4663   17.5799 C.ar    1  <0>1       -0.0367
     19 C16        13.5971    8.6397   16.6173 C.ar    1  <0>1        0.0474
     20 C17        13.0197    8.6566   15.2716 C.ar    1  <0>1        0.2603
     21 O2         13.4715    7.9245   14.4092 O.2     1  <0>1       -0.2670
     22 N3         11.9920    9.4778   14.9826 N.ar    1  <0>1       -0.2953
     23 C18        11.4696   10.3092   15.9409 C.ar    1  <0>1        0.1482
     24 N4         10.4519   11.1166   15.6630 N.ar    1  <0>1       -0.1961
     25 C19        11.4260    9.4831   13.6314 C.3     1  <0>1        0.0167
     26 C20        14.7276    7.7360   16.9344 C.ar    1  <0>1       -0.0127
     27 C21        15.9612    7.9118   16.3083 C.ar    1  <0>1       -0.0539
     28 C22        17.0119    7.0706   16.6121 C.ar    1  <0>1       -0.0612
     29 C23        16.8401    6.0470   17.5268 C.ar    1  <0>1       -0.0617
     30 C24        15.6172    5.8644   18.1473 C.ar    1  <0>1       -0.0612
     31 C25        14.5606    6.7028   17.8560 C.ar    1  <0>1       -0.0539
     32 H1          6.3323   15.5207   23.6926 H       1  <0>1        0.0281
     33 H2          6.5700   14.4547   22.2871 H       1  <0>1        0.0281
     34 H3          7.0765   16.1592   22.2071 H       1  <0>1        0.0281
     35 H4          4.7544   16.9059   22.2987 H       1  <0>1        0.0813
     36 H5          4.1898   15.2379   22.5576 H       1  <0>1        0.0813
     37 H6          2.9273   16.3643   20.5707 H       1  <0>1        0.0813
     38 H7          3.4961   15.6100   19.0621 H       1  <0>1        0.0813
     39 H8          1.8808   14.1473   20.2647 H       1  <0>1        0.0281
     40 H9          3.4894   13.3934   20.1532 H       1  <0>1        0.0281
     41 H10         2.9590   14.1370   21.6809 H       1  <0>1        0.0281
     42 H11         5.4380   17.6660   20.4054 H       1  <0>1        0.1300
     43 H12         5.2790   16.7593   18.8820 H       1  <0>1        0.1300
     44 H13         9.5203   15.6765   19.6889 H       1  <0>1        0.0655
     45 H14        10.3578   14.0411   18.0519 H       1  <0>1        0.0637
     46 H15         6.3920   13.5305   16.5369 H       1  <0>1        0.0637
     47 H16         5.5578   15.1697   18.1719 H       1  <0>1        0.0655
     48 H17         8.4914   12.6850   15.3862 H       1  <0>1        0.1550
     49 H18        11.8220   11.2156   19.2077 H       1  <0>1        0.0838
     50 H19        13.4948    9.4687   18.5781 H       1  <0>1        0.0633
     51 H20        11.9619    8.7654   13.0101 H       1  <0>1        0.0457
     52 H21        10.3723    9.2080   13.6778 H       1  <0>1        0.0457
     53 H22        11.5227   10.4797   13.2008 H       1  <0>1        0.0457
     54 H23        16.0952    8.7075   15.5905 H       1  <0>1        0.0624
     55 H24        17.9691    7.2084   16.1312 H       1  <0>1        0.0618
     56 H25        17.6641    5.3881   17.7578 H       1  <0>1        0.0618
     57 H26        15.4891    5.0639   18.8608 H       1  <0>1        0.0618
     58 H27        13.6064    6.5593   18.3410 H       1  <0>1        0.0624
     59 N5          4.9142   15.6218   20.6178 N.4     1  <0>1        0.2633
     60 H28         5.3822   14.7312   20.4124 H       1  <0>1        0.2070
@<TRIPOS>BOND
     1     1     2    1
     2     1    32    1
     3     1    33    1
     4     1    34    1
     5     2    35    1
     6     2    36    1
     7     2    59    1
     8     3     4    1
     9     3    37    1
    10     3    38    1
    11     3    59    1
    12     4    39    1
    13     4    40    1
    14     4    41    1
    15     5     6    1
    16     5    42    1
    17     5    43    1
    18     5    59    1
    19     6     7    1
    20     7    12   ar
    21     7     8   ar
    22     8     9   ar
    23     8    44    1
    24     9    10   ar
    25     9    45    1
    26    10    11   ar
    27    10    13    1
    28    11    12   ar
    29    11    46    1
    30    12    47    1
    31    13    14    1
    32    13    48    1
    33    14    24   ar
    34    14    15   ar
    35    15    16   ar
    36    16    17   ar
    37    16    49    1
    38    17    23   ar
    39    17    18   ar
    40    18    19   ar
    41    18    50    1
    42    19    20   ar
    43    19    26    1
    44    20    21    2
    45    20    22   ar
    46    22    23   ar
    47    22    25    1
    48    23    24   ar
    49    25    51    1
    50    25    52    1
    51    25    53    1
    52    26    31   ar
    53    26    27   ar
    54    27    28   ar
    55    27    54    1
    56    28    29   ar
    57    28    55    1
    58    29    30   ar
    59    29    56    1
    60    30    31   ar
    61    30    57    1
    62    31    58    1
    63    59    60    1
@<TRIPOS>MOLECULE
ZINC03815546
 52 55 0 0 0
SMALL
USER_CHARGES

@<TRIPOS>ATOM
      1 C1         11.2088    5.0916   15.2118 C.3     1  <0>1       -0.0375
      2 C2         12.5478    5.7795   15.2808 C.ar    1  <0>1       -0.0226
      3 C3         13.7834    5.1699   15.5054 C.ar    1  <0>1       -0.0261
      4 C4         14.7352    6.1364   15.4935 C.ar    1  <0>1        0.0056
      5 N1         14.1433    7.3354   15.2630 N.ar    1  <0>1       -0.3606
      6 H1         14.5994    8.1893   15.2020 H       1  <0>1        0.1653
      7 C5         12.7853    7.1377   15.1341 C.ar    1  <0>1        0.0432
      8 C6         11.8164    8.1329   14.8914 C.2     1  <0>1       -0.0254
      9 C7         11.9791    9.3996   15.4205 C.2     1  <0>1        0.0479
     10 C8         11.1572   10.5994   15.1506 C.ar    1  <0>1        0.0084
     11 C9         10.0445   10.8294   14.3451 C.ar    1  <0>1       -0.0515
     12 C10         9.4801   12.0846   14.2968 C.ar    1  <0>1       -0.0533
     13 C11        10.0237   13.1237   15.0547 C.ar    1  <0>1       -0.0160
     14 C12        11.1387   12.9006   15.8569 C.ar    1  <0>1       -0.0322
     15 C13        11.7102   11.6370   15.9157 C.ar    1  <0>1        0.0421
     16 N2         12.8021   11.1490   16.6239 N.am    1  <0>1       -0.2809
     17 C14        13.0055    9.8448   16.3720 C.2     1  <0>1        0.2490
     18 O1         13.8868    9.1527   16.8498 O.2     1  <0>1       -0.2698
     19 C15         9.4130   14.4741   15.0001 C.ar    1  <0>1       -0.0144
     20 C16         9.9514   15.5161   15.7542 C.ar    1  <0>1       -0.0538
     21 C17         9.3847   16.7732   15.6970 C.ar    1  <0>1       -0.0577
     22 C18         8.2767   17.0007   14.9019 C.ar    1  <0>1       -0.0199
     23 C19         7.7348   15.9691   14.1477 C.ar    1  <0>1        0.1207
     24 C20         8.3003   14.7054   14.1948 C.ar    1  <0>1       -0.0122
     25 O2          6.6491   16.1988   13.3632 O.3     1  <0>1       -0.4951
     26 C21         6.1174   17.5252   13.3634 C.3     1  <0>1        0.0788
     27 C22        14.0185    3.6973   15.7233 C.3     1  <0>1       -0.0159
     28 C23        14.1419    2.9949   14.3697 C.3     1  <0>1        0.0488
     29 C24        14.3769    1.5223   14.5875 C.2     1  <0>1        0.3050
     30 O3         14.4394    1.0802   15.7101 O.2     1  <0>1       -0.2510
     31 H2         11.0052    4.7951   14.1829 H       1  <0>1        0.0278
     32 H3         11.2214    4.2073   15.8490 H       1  <0>1        0.0278
     33 H4         10.4313    5.7747   15.5537 H       1  <0>1        0.0278
     34 H5         15.7933    5.9767   15.6391 H       1  <0>1        0.0810
     35 H6         10.9471    7.9055   14.2922 H       1  <0>1        0.0646
     36 H7          9.6252   10.0250   13.7590 H       1  <0>1        0.0624
     37 H8          8.6175   12.2654   13.6726 H       1  <0>1        0.0624
     38 H9         11.5568   13.7098   16.4372 H       1  <0>1        0.0642
     39 H10        13.3475   11.6818   17.2235 H       1  <0>1        0.1552
     40 H11        10.8138   15.3403   16.3799 H       1  <0>1        0.0624
     41 H12         9.8050   17.5803   16.2785 H       1  <0>1        0.0619
     42 H13         7.8341   17.9851   14.8641 H       1  <0>1        0.0654
     43 H14         7.8797   13.9018   13.6085 H       1  <0>1        0.0660
     44 H15         5.8105   17.7935   14.3743 H       1  <0>1        0.0660
     45 H16         6.8809   18.2226   13.0184 H       1  <0>1        0.0660
     46 H17         5.2556   17.5714   12.6976 H       1  <0>1        0.0660
     47 H18        14.9383    3.5563   16.2909 H       1  <0>1        0.0319
     48 H19        13.1810    3.2738   16.2775 H       1  <0>1        0.0319
     49 H20        13.2221    3.1359   13.8019 H       1  <0>1        0.0381
     50 H21        14.9795    3.4185   13.8155 H       1  <0>1        0.0381
     51 O4         14.5169    0.7020   13.5343 O.3     1  <0>1       -0.4806
     52 H          14.4685    1.0449   12.6636 H       1  <0>1        0.2951
@<TRIPOS>BOND
     1     1     2    1
     2     1    31    1
     3     1    32    1
     4     1    33    1
     5     2     7   ar
     6     2     3   ar
     7     3     4   ar
     8     3    27    1
     9     4     5   ar
    10     4    34    1
    11     5     6    1
    12     5     7   ar
    13     7     8    1
    14     8     9    2
    15     8    35    1
    16     9    17    1
    17     9    10    1
    18    10    15   ar
    19    10    11   ar
    20    11    12   ar
    21    11    36    1
    22    12    13   ar
    23    12    37    1
    24    13    14   ar
    25    13    19    1
    26    14    15   ar
    27    14    38    1
    28    15    16    1
    29    16    17   am
    30    16    39    1
    31    17    18    2
    32    19    24   ar
    33    19    20   ar
    34    20    21   ar
    35    20    40    1
    36    21    22   ar
    37    21    41    1
    38    22    23   ar
    39    22    42    1
    40    23    24   ar
    41    23    25    1
    42    24    43    1
    43    25    26    1
    44    26    44    1
    45    26    45    1
    46    26    46    1
    47    27    28    1
    48    27    47    1
    49    27    48    1
    50    28    29    1
    51    28    49    1
    52    28    50    1
    53    29    30    2
    54    29    51    1
    55    51    52    1
@<TRIPOS>MOLECULE
ZINC03815551
 64 67 0 0 0
SMALL
USER_CHARGES

@<TRIPOS>ATOM
      1 C1         12.0755   17.4678   18.4178 C.3     1  <0>1       -0.0245
      2 C2         12.7871   17.6146   17.0714 C.3     1  <0>1       -0.0348
      3 C3         14.8781   16.9402   18.0891 C.3     1  <0>1       -0.0348
      4 C4         15.6194   18.2480   17.8046 C.3     1  <0>1       -0.0245
      5 C5         13.4488   15.2856   17.0488 C.3     1  <0>1       -0.0288
      6 C6         12.6524   14.9795   15.7788 C.3     1  <0>1        0.0217
      7 C7         12.1650   13.5297   15.8195 C.3     1  <0>1        0.0944
      8 O1         11.4212   13.2439   14.6333 O.3     1  <0>1       -0.4918
      9 C8         10.9134   11.9883   14.5106 C.ar    1  <0>1        0.1206
     10 C9         10.1812   11.6438   13.3839 C.ar    1  <0>1       -0.0182
     11 C10         9.6648   10.3692   13.2586 C.ar    1  <0>1       -0.0371
     12 C11         9.8788    9.4322   14.2611 C.ar    1  <0>1        0.0326
     13 C12        10.6072    9.7796   15.3914 C.ar    1  <0>1       -0.0371
     14 C13        11.1276   11.0530   15.5123 C.ar    1  <0>1       -0.0182
     15 N1          9.3558    8.1399   14.1349 N.pl3   1  <0>1       -0.2994
     16 C14        10.1279    7.0416   14.4858 C.ar    1  <0>1        0.1248
     17 C15        11.4677    7.2241   14.8005 C.ar    1  <0>1        0.0024
     18 C16        12.2315    6.1176   15.1510 C.ar    1  <0>1        0.0539
     19 C17        11.6066    4.8509   15.1711 C.ar    1  <0>1        0.0173
     20 C18        12.3539    3.7004   15.5174 C.ar    1  <0>1       -0.0382
     21 C19        13.6763    3.8380   15.8412 C.ar    1  <0>1        0.0499
     22 C20        14.2936    5.1659   15.8099 C.ar    1  <0>1        0.2570
     23 O2         15.4718    5.2939   16.0917 O.2     1  <0>1       -0.2672
     24 N2         13.5634    6.2465   15.4713 N.ar    1  <0>1       -0.3214
     25 H1         13.9929    7.1493   15.4525 H       1  <0>1        0.1689
     26 C21        14.4801    2.6507   16.2136 C.ar    1  <0>1        0.0239
     27 C22        14.5705    2.2565   17.5492 C.ar    1  <0>1        0.0502
     28 C23        15.3168    1.1452   17.8891 C.ar    1  <0>1       -0.0427
     29 C24        15.9829    0.4299   16.9103 C.ar    1  <0>1       -0.0590
     30 C25        15.9025    0.8189   15.5853 C.ar    1  <0>1       -0.0427
     31 C26        15.1549    1.9249   15.2312 C.ar    1  <0>1        0.0502
     32 Cl1        15.0553    2.4114   13.5678 Cl      1  <0>1       -0.0829
     33 Cl2        13.7406    3.1568   18.7800 Cl      1  <0>1       -0.0829
     34 C27        10.2495    4.7573   14.8394 C.ar    1  <0>1        0.0388
     35 N3          9.5704    5.8358   14.5145 N.ar    1  <0>1       -0.2395
     36 H2         11.7945   16.4255   18.5685 H       1  <0>1        0.0281
     37 H3         12.7444   17.7831   19.2186 H       1  <0>1        0.0281
     38 H4         11.1807   18.0902   18.4257 H       1  <0>1        0.0281
     39 H5         13.1552   18.6350   16.9643 H       1  <0>1        0.0812
     40 H6         12.0878   17.3941   16.2649 H       1  <0>1        0.0812
     41 H7         14.3465   17.0227   19.0371 H       1  <0>1        0.0812
     42 H8         15.5949   16.1209   18.1446 H       1  <0>1        0.0812
     43 H9         16.3977   18.3948   18.5536 H       1  <0>1        0.0281
     44 H10        16.0726   18.2008   16.8144 H       1  <0>1        0.0281
     45 H11        14.9164   19.0801   17.8432 H       1  <0>1        0.0281
     46 H12        12.8114   15.1408   17.9212 H       1  <0>1        0.0815
     47 H13        14.3064   14.6156   17.1102 H       1  <0>1        0.0815
     48 H14        13.2897   15.1242   14.9065 H       1  <0>1        0.0350
     49 H15        11.7949   15.6495   15.7174 H       1  <0>1        0.0350
     50 H16        11.5276   13.3850   16.6917 H       1  <0>1        0.0698
     51 H17        13.0226   12.8597   15.8809 H       1  <0>1        0.0698
     52 H18        10.0145   12.3728   12.6046 H       1  <0>1        0.0655
     53 H19         9.0951   10.1011   12.3813 H       1  <0>1        0.0637
     54 H20        10.7701    9.0529   16.1734 H       1  <0>1        0.0637
     55 H21        11.6978   11.3221   16.3891 H       1  <0>1        0.0655
     56 H22         8.4536    8.0121   13.8022 H       1  <0>1        0.1536
     57 H23        11.9087    8.2096   14.7738 H       1  <0>1        0.0673
     58 H24        11.8855    2.7274   15.5313 H       1  <0>1        0.0632
     59 H25        15.3839    0.8364   18.9218 H       1  <0>1        0.0632
     60 H26        16.5686   -0.4360   17.1817 H       1  <0>1        0.0618
     61 H27        16.4252    0.2563   14.8259 H       1  <0>1        0.0632
     62 H28         9.7582    3.7956   14.8508 H       1  <0>1        0.0837
     63 N4         13.9303   16.6816   16.9848 N.4     1  <0>1        0.2349
     64 H29        14.4127   16.8273   16.0902 H       1  <0>1        0.2033
@<TRIPOS>BOND
     1     1     2    1
     2     1    36    1
     3     1    37    1
     4     1    38    1
     5     2    39    1
     6     2    40    1
     7     2    63    1
     8     3     4    1
     9     3    41    1
    10     3    42    1
    11     3    63    1
    12     4    43    1
    13     4    44    1
    14     4    45    1
    15     5     6    1
    16     5    46    1
    17     5    47    1
    18     5    63    1
    19     6     7    1
    20     6    48    1
    21     6    49    1
    22     7     8    1
    23     7    50    1
    24     7    51    1
    25     8     9    1
    26     9    14   ar
    27     9    10   ar
    28    10    11   ar
    29    10    52    1
    30    11    12   ar
    31    11    53    1
    32    12    13   ar
    33    12    15    1
    34    13    14   ar
    35    13    54    1
    36    14    55    1
    37    15    16    1
    38    15    56    1
    39    16    35   ar
    40    16    17   ar
    41    17    18   ar
    42    17    57    1
    43    18    24   ar
    44    18    19   ar
    45    19    20   ar
    46    19    34   ar
    47    20    21   ar
    48    20    58    1
    49    21    22   ar
    50    21    26    1
    51    22    23    2
    52    22    24   ar
    53    24    25    1
    54    26    31   ar
    55    26    27   ar
    56    27    28   ar
    57    27    33    1
    58    28    29   ar
    59    28    59    1
    60    29    30   ar
    61    29    60    1
    62    30    31   ar
    63    30    61    1
    64    31    32    1
    65    34    35   ar
    66    34    62    1
    67    63    64    1
@<TRIPOS>MOLECULE
ZINC03815556
 44 47 0 0 0
SMALL
USER_CHARGES

@<TRIPOS>ATOM
      1 C1         12.3877    9.7468   14.0846 C.3     1  <0>1        0.0167
      2 N1         11.7642    9.0216   15.1943 N.ar    1  <0>1       -0.2953
      3 C2         10.7927    9.6340   15.9451 C.ar    1  <0>1        0.1482
      4 C3         10.1817    8.9492   17.0179 C.ar    1  <0>1        0.0365
      5 C4         10.5665    7.6247   17.3276 C.ar    1  <0>1       -0.0366
      6 C5         11.5365    7.0216   16.5726 C.ar    1  <0>1        0.0502
      7 C6         12.1500    7.7602   15.4668 C.ar    1  <0>1        0.2604
      8 O1         13.0134    7.2310   14.7898 O.2     1  <0>1       -0.2670
      9 C7         11.9619    5.6343   16.8719 C.ar    1  <0>1        0.0239
     10 C8         13.0125    5.3997   17.7597 C.ar    1  <0>1        0.0502
     11 C9         13.4010    4.1038   18.0381 C.ar    1  <0>1       -0.0427
     12 C10        12.7575    3.0402   17.4312 C.ar    1  <0>1       -0.0590
     13 C11        11.7188    3.2661   16.5462 C.ar    1  <0>1       -0.0427
     14 C12        11.3173    4.5569   16.2629 C.ar    1  <0>1        0.0502
     15 Cl1        10.0142    4.8384   15.1510 Cl      1  <0>1       -0.0829
     16 Cl2        13.8256    6.7334   18.5173 Cl      1  <0>1       -0.0829
     17 C13         9.1934    9.6118   17.7612 C.ar    1  <0>1        0.0418
     18 N2          8.8786   10.8503   17.4309 N.ar    1  <0>1       -0.2219
     19 C14         9.4711   11.4619   16.4112 C.ar    1  <0>1        0.2215
     20 N3         10.4089   10.8777   15.6810 N.ar    1  <0>1       -0.1961
     21 N4          9.0994   12.7564   16.1049 N.pl3   1  <0>1       -0.2795
     22 C15         8.2021   13.4421   16.9335 C.ar    1  <0>1        0.0941
     23 C16         8.0733   13.0967   18.2695 C.ar    1  <0>1        0.0523
     24 N5          7.2293   13.7399   19.0537 N.ar    1  <0>1       -0.2612
     25 C17         6.4787   14.7292   18.6080 C.ar    1  <0>1        0.0311
     26 C18         6.5517   15.1387   17.2912 C.ar    1  <0>1        0.0000
     27 C19         7.4226   14.4859   16.4258 C.ar    1  <0>1        0.1441
     28 O2          7.5177   14.8564   15.1224 O.3     1  <0>1       -0.4932
     29 C20         6.6829   15.9332   14.6914 C.3     1  <0>1        0.0789
     30 H1         13.2626   10.2854   14.4487 H       1  <0>1        0.0457
     31 H2         12.6918    9.0391   13.3132 H       1  <0>1        0.0457
     32 H3         11.6729   10.4554   13.6663 H       1  <0>1        0.0457
     33 H4         10.1020    7.0964   18.1470 H       1  <0>1        0.0633
     34 H5         14.2115    3.9207   18.7279 H       1  <0>1        0.0632
     35 H6         13.0679    2.0290   17.6492 H       1  <0>1        0.0618
     36 H7         11.2208    2.4314   16.0755 H       1  <0>1        0.0632
     37 H8          8.7039    9.1205   18.5891 H       1  <0>1        0.0838
     38 H9          9.4599   13.1908   15.3160 H       1  <0>1        0.1552
     39 H10         8.6701   12.2921   18.6731 H       1  <0>1        0.0850
     40 H11         5.8010   15.2292   19.2841 H       1  <0>1        0.0831
     41 H12         5.9367   15.9528   16.9370 H       1  <0>1        0.0670
     42 H13         5.6373   15.6660   14.8444 H       1  <0>1        0.0660
     43 H14         6.8574   16.1270   13.6331 H       1  <0>1        0.0660
     44 H15         6.9173   16.8280   15.2681 H       1  <0>1        0.0660
@<TRIPOS>BOND
     1     1     2    1
     2     1    30    1
     3     1    31    1
     4     1    32    1
     5     2     7   ar
     6     2     3   ar
     7     3    20   ar
     8     3     4   ar
     9     4     5   ar
    10     4    17   ar
    11     5     6   ar
    12     5    33    1
    13     6     7   ar
    14     6     9    1
    15     7     8    2
    16     9    14   ar
    17     9    10   ar
    18    10    11   ar
    19    10    16    1
    20    11    12   ar
    21    11    34    1
    22    12    13   ar
    23    12    35    1
    24    13    14   ar
    25    13    36    1
    26    14    15    1
    27    17    18   ar
    28    17    37    1
    29    18    19   ar
    30    19    20   ar
    31    19    21    1
    32    21    22    1
    33    21    38    1
    34    22    27   ar
    35    22    23   ar
    36    23    24   ar
    37    23    39    1
    38    24    25   ar
    39    25    26   ar
    40    25    40    1
    41    26    27   ar
    42    26    41    1
    43    27    28    1
    44    28    29    1
    45    29    42    1
    46    29    43    1
    47    29    44    1
@<TRIPOS>MOLECULE
ZINC03815556
 45 48 0 0 0
SMALL
USER_CHARGES

@<TRIPOS>ATOM
      1 C1         11.4280    9.4853   13.6306 C.3     1  <0>1        0.0167
      2 N1         11.9920    9.4778   14.9827 N.ar    1  <0>1       -0.2953
      3 C2         11.4680   10.3074   15.9417 C.ar    1  <0>1        0.1482
      4 C3         11.9998   10.3125   17.2495 C.ar    1  <0>1        0.0365
      5 C4         13.0782    9.4613   17.5820 C.ar    1  <0>1       -0.0366
      6 C5         13.5943    8.6367   16.6186 C.ar    1  <0>1        0.0502
      7 C6         13.0193    8.6561   15.2719 C.ar    1  <0>1        0.2604
      8 O1         13.4723    7.9254   14.4090 O.2     1  <0>1       -0.2670
      9 C7         14.7247    7.7328   16.9357 C.ar    1  <0>1        0.0239
     10 C8         16.0393    8.1666   16.7597 C.ar    1  <0>1        0.0502
     11 C9         17.0886    7.3207   17.0617 C.ar    1  <0>1       -0.0427
     12 C10        16.8384    6.0426   17.5281 C.ar    1  <0>1       -0.0590
     13 C11        15.5376    5.6047   17.6998 C.ar    1  <0>1       -0.0427
     14 C12        14.4793    6.4422   17.4061 C.ar    1  <0>1        0.0502
     15 Cl1        12.8475    5.8903   17.6212 Cl      1  <0>1       -0.0829
     16 Cl2        16.3552    9.7678   16.1682 Cl      1  <0>1       -0.0829
     17 C13        11.4357   11.1766   18.2000 C.ar    1  <0>1        0.0418
     18 N2         10.4343   11.9536   17.8318 N.ar    1  <0>1       -0.2219
     19 C14         9.9559   11.9182   16.5929 C.ar    1  <0>1        0.2216
     20 N3         10.4553   11.1199   15.6617 N.ar    1  <0>1       -0.1961
     21 N4          8.9027   12.7485   16.2625 N.pl3   1  <0>1       -0.2760
     22 C15         8.4360   13.6902   17.1886 C.ar    1  <0>1        0.1401
     23 C16         9.2713   14.1721   18.1840 C.ar    1  <0>1        0.1945
     24 C17         7.6011   15.5226   19.0258 C.ar    1  <0>1        0.1731
     25 C18         6.7082   15.0979   18.0619 C.ar    1  <0>1        0.0456
     26 C19         7.1204   14.1588   17.1229 C.ar    1  <0>1        0.1526
     27 O2          6.2688   13.7127   16.1633 O.3     1  <0>1       -0.4929
     28 C20         4.9434   14.2468   16.1728 C.3     1  <0>1        0.0789
     29 H1         11.9525   10.2223   13.0224 H       1  <0>1        0.0457
     30 H2         11.5424    8.4977   13.1837 H       1  <0>1        0.0457
     31 H3         10.3697    9.7417   13.6797 H       1  <0>1        0.0457
     32 H4         13.4884    9.4611   18.5811 H       1  <0>1        0.0633
     33 H5         18.1065    7.6564   16.9295 H       1  <0>1        0.0632
     34 H6         17.6624    5.3838   17.7589 H       1  <0>1        0.0618
     35 H7         15.3491    4.6056   18.0639 H       1  <0>1        0.0632
     36 H8         11.8160   11.2087   19.2103 H       1  <0>1        0.0838
     37 H9          8.4863   12.6797   15.3891 H       1  <0>1        0.1553
     38 H10        10.2896   13.8174   18.2448 H       1  <0>1        0.1397
     39 H11         7.2857   16.2485   19.7607 H       1  <0>1        0.1377
     40 H12         5.7009   15.4870   18.0404 H       1  <0>1        0.0714
     41 H13         4.4636   14.0113   17.1228 H       1  <0>1        0.0660
     42 H14         4.3690   13.8081   15.3569 H       1  <0>1        0.0660
     43 H15         4.9866   15.3286   16.0461 H       1  <0>1        0.0660
     44 N5          8.8863   15.0858   19.1157 N.ar    1  <0>1       -0.2155
     45 H16         9.5271   15.4252   19.8426 H       1  <0>1        0.4523
@<TRIPOS>BOND
     1     1     2    1
     2     1    29    1
     3     1    30    1
     4     1    31    1
     5     2     7   ar
     6     2     3   ar
     7     3    20   ar
     8     3     4   ar
     9     4     5   ar
    10     4    17   ar
    11     5     6   ar
    12     5    32    1
    13     6     7   ar
    14     6     9    1
    15     7     8    2
    16     9    14   ar
    17     9    10   ar
    18    10    11   ar
    19    10    16    1
    20    11    12   ar
    21    11    33    1
    22    12    13   ar
    23    12    34    1
    24    13    14   ar
    25    13    35    1
    26    14    15    1
    27    17    18   ar
    28    17    36    1
    29    18    19   ar
    30    19    20   ar
    31    19    21    1
    32    21    22    1
    33    21    37    1
    34    22    26   ar
    35    22    23   ar
    36    23    38    1
    37    23    44   ar
    38    24    25   ar
    39    24    39    1
    40    24    44   ar
    41    25    26   ar
    42    25    40    1
    43    26    27    1
    44    27    28    1
    45    28    41    1
    46    28    42    1
    47    28    43    1
    48    44    45    1
@<TRIPOS>MOLECULE
ZINC03815557
 34 36 0 0 0
SMALL
USER_CHARGES

@<TRIPOS>ATOM
      1 C1         13.2305    8.9264   16.2392 C.3     1  <0>1       -0.0469
      2 C2         13.1256    8.0908   14.9619 C.3     1  <0>1        0.0252
      3 N1         12.3770    6.8629   15.2417 N.ar    1  <0>1       -0.2925
      4 C3         13.0468    5.7378   15.6510 C.ar    1  <0>1        0.1485
      5 C4         12.3407    4.5463   15.9244 C.ar    1  <0>1        0.0365
      6 C5         10.9352    4.5029   15.7782 C.ar    1  <0>1       -0.0366
      7 C6         10.2754    5.6306   15.3693 C.ar    1  <0>1        0.0502
      8 C7         11.0383    6.8501   15.0941 C.ar    1  <0>1        0.2607
      9 O1         10.4586    7.8593   14.7346 O.2     1  <0>1       -0.2670
     10 C8          8.8028    5.6173   15.2060 C.ar    1  <0>1        0.0239
     11 C9          8.2371    5.2754   13.9771 C.ar    1  <0>1        0.0502
     12 C10         6.8636    5.2604   13.8331 C.ar    1  <0>1       -0.0427
     13 C11         6.0494    5.5934   14.9006 C.ar    1  <0>1       -0.0590
     14 C12         6.6040    5.9383   16.1201 C.ar    1  <0>1       -0.0427
     15 C13         7.9759    5.9522   16.2789 C.ar    1  <0>1        0.0502
     16 Cl1         8.6699    6.3860   17.8099 Cl      1  <0>1       -0.0829
     17 Cl2         9.2573    4.8637   12.6342 Cl      1  <0>1       -0.0829
     18 C14        13.0633    3.4185   16.3409 C.ar    1  <0>1        0.0418
     19 N2         14.3742    3.5167   16.4606 N.ar    1  <0>1       -0.2224
     20 C15        15.0056    4.6549   16.1946 C.ar    1  <0>1        0.2144
     21 N3         14.3669    5.7451   15.7987 N.ar    1  <0>1       -0.1966
     22 N4         16.3781    4.7028   16.3367 N.pl3   1  <0>1       -0.3274
     23 H1         12.2305    9.1823   16.5892 H       1  <0>1        0.0247
     24 H2         13.7485    8.3522   17.0074 H       1  <0>1        0.0247
     25 H3         13.7875    9.8400   16.0310 H       1  <0>1        0.0247
     26 H4         14.1256    7.8348   14.6119 H       1  <0>1        0.0490
     27 H5         12.6076    8.6649   14.1936 H       1  <0>1        0.0490
     28 H6         10.3902    3.5939   15.9858 H       1  <0>1        0.0633
     29 H7          6.4243    4.9919   12.8836 H       1  <0>1        0.0632
     30 H8          4.9761    5.5844   14.7815 H       1  <0>1        0.0618
     31 H9          5.9629    6.1970   16.9497 H       1  <0>1        0.0632
     32 H10        12.5578    2.4894   16.5595 H       1  <0>1        0.0838
     33 H11        16.8568    5.5250   16.1475 H       1  <0>1        0.1452
     34 H12        16.8636    3.9144   16.6257 H       1  <0>1        0.1452
@<TRIPOS>BOND
     1     1     2    1
     2     1    23    1
     3     1    24    1
     4     1    25    1
     5     2     3    1
     6     2    26    1
     7     2    27    1
     8     3     8   ar
     9     3     4   ar
    10     4    21   ar
    11     4     5   ar
    12     5     6   ar
    13     5    18   ar
    14     6     7   ar
    15     6    28    1
    16     7     8   ar
    17     7    10    1
    18     8     9    2
    19    10    15   ar
    20    10    11   ar
    21    11    12   ar
    22    11    17    1
    23    12    13   ar
    24    12    29    1
    25    13    14   ar
    26    13    30    1
    27    14    15   ar
    28    14    31    1
    29    15    16    1
    30    18    19   ar
    31    18    32    1
    32    19    20   ar
    33    20    21   ar
    34    20    22    1
    35    22    33    1
    36    22    34    1
@<TRIPOS>MOLECULE
ZINC03815559
 49 51 0 0 0
SMALL
USER_CHARGES

@<TRIPOS>ATOM
      1 C1         12.7881   11.9750   14.4592 C.3     1  <0>1        0.0167
      2 N1         11.4328   11.4930   14.1818 N.ar    1  <0>1       -0.2953
      3 C2         11.1501   10.1557   14.3004 C.ar    1  <0>1        0.1482
      4 C3          9.8492    9.6748   14.0371 C.ar    1  <0>1        0.0365
      5 C4          8.8253   10.5690   13.6488 C.ar    1  <0>1       -0.0366
      6 C5          9.1168   11.9016   13.5331 C.ar    1  <0>1        0.0502
      7 C6         10.4768   12.3673   13.8131 C.ar    1  <0>1        0.2604
      8 O1         10.7448   13.5513   13.7125 O.2     1  <0>1       -0.2670
      9 C7          8.0659   12.8642   13.1277 C.ar    1  <0>1        0.0239
     10 C8          7.8678   13.1581   11.7780 C.ar    1  <0>1        0.0502
     11 C9          6.8832   14.0526   11.4065 C.ar    1  <0>1       -0.0427
     12 C10         6.1010   14.6642   12.3696 C.ar    1  <0>1       -0.0590
     13 C11         6.2957   14.3811   13.7096 C.ar    1  <0>1       -0.0427
     14 C12         7.2736   13.4849   14.0942 C.ar    1  <0>1        0.0502
     15 Cl1         7.5172   13.1319   15.7764 Cl      1  <0>1       -0.0829
     16 Cl2         8.8528   12.3966   10.5682 Cl      1  <0>1       -0.0829
     17 C13         9.6023    8.3003   14.1696 C.ar    1  <0>1        0.0418
     18 N2         10.5974    7.5116   14.5300 N.ar    1  <0>1       -0.2222
     19 C14        11.8082    8.0002   14.7749 C.ar    1  <0>1        0.2170
     20 N3         12.0893    9.2892   14.6632 N.ar    1  <0>1       -0.1964
     21 N4         12.8117    7.1312   15.1545 N.pl3   1  <0>1       -0.3134
     22 C15        12.5300    5.6996   15.2863 C.3     1  <0>1        0.0118
     23 C16        13.8028    4.9668   15.7152 C.3     1  <0>1       -0.0374
     24 C17        13.5085    3.4716   15.8528 C.3     1  <0>1       -0.0511
     25 C18        14.7813    2.7388   16.2816 C.3     1  <0>1       -0.0429
     26 C19        14.4870    1.2436   16.4193 C.3     1  <0>1        0.0448
     27 C20        15.7407    0.5218   16.8417 C.2     1  <0>1        0.3047
     28 O2         16.7644    1.1397   17.0149 O.2     1  <0>1       -0.2510
     29 H1         13.3763   11.9537   13.5418 H       1  <0>1        0.0457
     30 H2         12.7403   12.9965   14.8366 H       1  <0>1        0.0457
     31 H3         13.2561   11.3333   15.2058 H       1  <0>1        0.0457
     32 H4          7.8283   10.2064   13.4469 H       1  <0>1        0.0633
     33 H5          6.7264   14.2782   10.3621 H       1  <0>1        0.0632
     34 H6          5.3351   15.3660   12.0742 H       1  <0>1        0.0618
     35 H7          5.6819   14.8623   14.4567 H       1  <0>1        0.0632
     36 H8          8.6198    7.8954   13.9767 H       1  <0>1        0.0838
     37 H9         13.7033    7.4686   15.3338 H       1  <0>1        0.1489
     38 H10        12.1897    5.3065   14.3282 H       1  <0>1        0.0462
     39 H11        11.7539    5.5497   16.0369 H       1  <0>1        0.0462
     40 H12        14.5788    5.1167   14.9646 H       1  <0>1        0.0280
     41 H13        14.1430    5.3598   16.6731 H       1  <0>1        0.0280
     42 H14        12.7325    3.3216   16.6034 H       1  <0>1        0.0266
     43 H15        13.1682    3.0786   14.8947 H       1  <0>1        0.0266
     44 H16        15.5573    2.8887   15.5311 H       1  <0>1        0.0270
     45 H17        15.1216    3.1318   17.2397 H       1  <0>1        0.0270
     46 H18        13.7110    1.0936   17.1699 H       1  <0>1        0.0377
     47 H19        14.1467    0.8506   15.4613 H       1  <0>1        0.0377
     48 O3         15.7199   -0.8077   17.0256 O.3     1  <0>1       -0.4806
     49 H          14.9260   -1.2869   16.8913 H       1  <0>1        0.2951
@<TRIPOS>BOND
     1     1     2    1
     2     1    29    1
     3     1    30    1
     4     1    31    1
     5     2     7   ar
     6     2     3   ar
     7     3    20   ar
     8     3     4   ar
     9     4     5   ar
    10     4    17   ar
    11     5     6   ar
    12     5    32    1
    13     6     7   ar
    14     6     9    1
    15     7     8    2
    16     9    14   ar
    17     9    10   ar
    18    10    11   ar
    19    10    16    1
    20    11    12   ar
    21    11    33    1
    22    12    13   ar
    23    12    34    1
    24    13    14   ar
    25    13    35    1
    26    14    15    1
    27    17    18   ar
    28    17    36    1
    29    18    19   ar
    30    19    20   ar
    31    19    21    1
    32    21    22    1
    33    21    37    1
    34    22    23    1
    35    22    38    1
    36    22    39    1
    37    23    24    1
    38    23    40    1
    39    23    41    1
    40    24    25    1
    41    24    42    1
    42    24    43    1
    43    25    26    1
    44    25    44    1
    45    25    45    1
    46    26    27    1
    47    26    46    1
    48    26    47    1
    49    27    28    2
    50    27    48    1
    51    48    49    1
@<TRIPOS>MOLECULE
ZINC03815788
 35 37 0 0 0
SMALL
USER_CHARGES

@<TRIPOS>ATOM
      1 C1         11.7044    7.5252   15.0698 C.3     1  <0>1        0.0790
      2 O1         10.6912    8.3951   14.5611 O.3     1  <0>1       -0.4914
      3 C2         11.0910    9.6185   14.1233 C.ar    1  <0>1        0.1622
      4 C3         12.4106    9.9596   14.1849 C.ar    1  <0>1       -0.0071
      5 C4         12.8237   11.2243   13.7323 C.ar    1  <0>1        0.0047
      6 C5         14.1748   11.6078   13.7815 C.ar    1  <0>1       -0.0432
      7 C6         14.5107   12.8714   13.3174 C.ar    1  <0>1        0.0023
      8 C7         13.5057   13.7154   12.8204 C.ar    1  <0>1        0.0360
      9 N1         12.2520   13.3402   12.7831 N.ar    1  <0>1       -0.2543
     10 C8         11.8663   12.1345   13.2160 C.ar    1  <0>1        0.0747
     11 C9         10.5154   11.7517   13.1661 C.ar    1  <0>1        0.0097
     12 C10        10.1423   10.5174   13.6131 C.ar    1  <0>1        0.1635
     13 O2          8.8339   10.1539   13.5627 O.3     1  <0>1       -0.4914
     14 C11         7.9145   11.1112   13.0333 C.3     1  <0>1        0.0790
     15 C12        15.9225   13.3270   13.3460 C.ar    1  <0>1        0.0019
     16 C13        16.8939   12.6755   12.5554 C.ar    1  <0>1       -0.0475
     17 C14        18.1829   13.1132   12.5939 C.ar    1  <0>1        0.0004
     18 C15        18.5183   14.2029   13.4167 C.ar    1  <0>1        0.2122
     19 O3         19.6710   14.6021   13.4565 O.3     1  <0>1       -0.4924
     20 N2         17.5748   14.8044   14.1648 N.ar    1  <0>1       -0.2208
     21 H1         20.2367   14.0483   12.8455 H       1  <0>1        0.2937
     22 C16        16.2879   14.3778   14.1368 C.ar    1  <0>1        0.0391
     23 H2         12.1931    7.9963   15.9227 H       1  <0>1        0.0660
     24 H3         11.2516    6.5848   15.3841 H       1  <0>1        0.0660
     25 H4         12.4413    7.3309   14.2905 H       1  <0>1        0.0660
     26 H5         13.1338    9.2615   14.5798 H       1  <0>1        0.0662
     27 H6         14.9291   10.9388   14.1686 H       1  <0>1        0.0631
     28 H7         13.7727   14.6980   12.4604 H       1  <0>1        0.0836
     29 H8          9.7739   12.4330   12.7757 H       1  <0>1        0.0677
     30 H9          8.1913   11.3516   12.0067 H       1  <0>1        0.0660
     31 H10         6.9072   10.6953   13.0500 H       1  <0>1        0.0660
     32 H11         7.9438   12.0169   13.6391 H       1  <0>1        0.0660
     33 H12        16.6183   11.8408   11.9280 H       1  <0>1        0.0626
     34 H13        18.9393   12.6329   11.9909 H       1  <0>1        0.0671
     35 H14        15.5460   14.8737   14.7453 H       1  <0>1        0.0837
@<TRIPOS>BOND
     1     1     2    1
     2     1    23    1
     3     1    24    1
     4     1    25    1
     5     2     3    1
     6     3    12   ar
     7     3     4   ar
     8     4     5   ar
     9     4    26    1
    10     5    10   ar
    11     5     6   ar
    12     6     7   ar
    13     6    27    1
    14     7     8   ar
    15     7    15    1
    16     8     9   ar
    17     8    28    1
    18     9    10   ar
    19    10    11   ar
    20    11    12   ar
    21    11    29    1
    22    12    13    1
    23    13    14    1
    24    14    30    1
    25    14    31    1
    26    14    32    1
    27    15    16   ar
    28    15    22   ar
    29    16    33    1
    30    16    17   ar
    31    17    34    1
    32    17    18   ar
    33    18    20   ar
    34    18    19    1
    35    19    21    1
    36    20    22   ar
    37    22    35    1
@<TRIPOS>MOLECULE
ZINC03815788
 35 37 0 0 0
SMALL
USER_CHARGES

@<TRIPOS>ATOM
      1 C1         11.7279    8.0279   14.9141 C.3     1  <0>1        0.0790
      2 O1         11.8313    8.9229   13.8048 O.3     1  <0>1       -0.4914
      3 C2         11.1974   10.1203   13.9168 C.ar    1  <0>1        0.1622
      4 C3         10.5047   10.4138   15.0550 C.ar    1  <0>1       -0.0071
      5 C4          9.8495   11.6515   15.1707 C.ar    1  <0>1        0.0047
      6 C5          9.1273   11.9859   16.3289 C.ar    1  <0>1       -0.0432
      7 C6          8.5055   13.2253   16.3741 C.ar    1  <0>1        0.0023
      8 C7          8.6153   14.0944   15.2776 C.ar    1  <0>1        0.0360
      9 N1          9.2924   13.7647   14.2068 N.ar    1  <0>1       -0.2543
     10 C8          9.9135   12.5842   14.1040 C.ar    1  <0>1        0.0747
     11 C9         10.6356   12.2509   12.9459 C.ar    1  <0>1        0.0097
     12 C10        11.2618   11.0414   12.8605 C.ar    1  <0>1        0.1635
     13 O2         11.9578   10.7251   11.7371 O.3     1  <0>1       -0.4914
     14 C11        11.9876   11.7029   10.6955 C.3     1  <0>1        0.0790
     15 C12         7.7305   13.6292   17.5730 C.ar    1  <0>1        0.0019
     16 C13         8.3829   13.8065   18.8125 C.ar    1  <0>1       -0.0475
     17 C14         7.6525   14.1817   19.8989 C.ar    1  <0>1        0.0004
     18 C15         6.2679   14.3859   19.7637 C.ar    1  <0>1        0.2122
     19 O3          5.6060   14.7230   20.7321 O.3     1  <0>1       -0.4924
     20 N2          5.6683   14.2059   18.5722 N.ar    1  <0>1       -0.2208
     21 H1          6.2031   14.8110   21.5295 H       1  <0>1        0.2937
     22 C16         6.3835   13.8310   17.4828 C.ar    1  <0>1        0.0391
     23 H2         10.6794    7.7888   15.0916 H       1  <0>1        0.0660
     24 H3         12.2774    7.1124   14.6947 H       1  <0>1        0.0660
     25 H4         12.1484    8.4999   15.8021 H       1  <0>1        0.0660
     26 H5         10.4600    9.6983   15.8628 H       1  <0>1        0.0662
     27 H6          9.0587   11.2987   17.1593 H       1  <0>1        0.0631
     28 H7          8.1293   15.0580   15.3180 H       1  <0>1        0.0836
     29 H8         10.6943   12.9500   12.1247 H       1  <0>1        0.0677
     30 H9         12.4399   12.6207   11.0715 H       1  <0>1        0.0660
     31 H10        12.5750   11.3248    9.8588 H       1  <0>1        0.0660
     32 H11        10.9707   11.9094   10.3616 H       1  <0>1        0.0660
     33 H12         9.4475   13.6467   18.8978 H       1  <0>1        0.0626
     34 H13         8.1342   14.3297   20.8542 H       1  <0>1        0.0671
     35 H14         5.8832   13.6912   16.5358 H       1  <0>1        0.0837
@<TRIPOS>BOND
     1     1     2    1
     2     1    23    1
     3     1    24    1
     4     1    25    1
     5     2     3    1
     6     3    12   ar
     7     3     4   ar
     8     4     5   ar
     9     4    26    1
    10     5    10   ar
    11     5     6   ar
    12     6     7   ar
    13     6    27    1
    14     7     8   ar
    15     7    15    1
    16     8     9   ar
    17     8    28    1
    18     9    10   ar
    19    10    11   ar
    20    11    12   ar
    21    11    29    1
    22    12    13    1
    23    13    14    1
    24    14    30    1
    25    14    31    1
    26    14    32    1
    27    15    16   ar
    28    15    22   ar
    29    16    33    1
    30    16    17   ar
    31    17    34    1
    32    17    18   ar
    33    18    20   ar
    34    18    19    1
    35    19    21    1
    36    20    22   ar
    37    22    35    1
@<TRIPOS>MOLECULE
ZINC03815789
 38 40 0 0 0
SMALL
USER_CHARGES

@<TRIPOS>ATOM
      1 C1         10.5242   11.1600   11.6876 C.3     1  <0>1        0.0788
      2 O1         10.9284   10.5744   12.9268 O.3     1  <0>1       -0.4944
      3 C2         10.4363   11.1324   14.0616 C.ar    1  <0>1        0.1307
      4 C3          9.5822   12.2289   14.0062 C.ar    1  <0>1       -0.0012
      5 C4          9.0977   12.7654   15.1820 C.ar    1  <0>1        0.0311
      6 N1          9.4402   12.2620   16.3532 N.ar    1  <0>1       -0.2624
      7 C5         10.2503   11.2278   16.4588 C.ar    1  <0>1        0.0388
      8 C6         10.7797   10.6225   15.3231 C.ar    1  <0>1        0.0433
      9 C7         11.6915    9.4590   15.4438 C.ar    1  <0>1        0.0058
     10 C8         12.7813    9.5110   16.3018 C.ar    1  <0>1       -0.0431
     11 C9         13.6140    8.3824   16.3800 C.ar    1  <0>1        0.0047
     12 C10        14.7352    8.3634   17.2278 C.ar    1  <0>1       -0.0071
     13 C11        15.5229    7.2511   17.2803 C.ar    1  <0>1        0.1622
     14 C12        15.2256    6.1254   16.4966 C.ar    1  <0>1        0.1635
     15 C13        14.1443    6.1161   15.6647 C.ar    1  <0>1        0.0097
     16 C14        13.3117    7.2457   15.5872 C.ar    1  <0>1        0.0747
     17 N2         12.2463    7.2553   14.7788 N.ar    1  <0>1       -0.2543
     18 C15        11.4555    8.2956   14.6956 C.ar    1  <0>1        0.0361
     19 O2         16.0262    5.0297   16.5669 O.3     1  <0>1       -0.4914
     20 C16        15.6733    3.9146   15.7460 C.3     1  <0>1        0.0790
     21 O3         16.6069    7.2326   18.1004 O.3     1  <0>1       -0.4914
     22 C17        16.8561    8.4088   18.8729 C.3     1  <0>1        0.0790
     23 H1          9.4396   11.1031   11.5956 H       1  <0>1        0.0660
     24 H2         10.8368   12.2040   11.6601 H       1  <0>1        0.0660
     25 H3         10.9878   10.6201   10.8621 H       1  <0>1        0.0660
     26 H4          9.2983   12.6527   13.0542 H       1  <0>1        0.0669
     27 H5          8.4311   13.6143   15.1432 H       1  <0>1        0.0831
     28 H6         10.5055   10.8460   17.4364 H       1  <0>1        0.0837
     29 H7         12.9828   10.3927   16.8921 H       1  <0>1        0.0631
     30 H8         14.9714    9.2249   17.8347 H       1  <0>1        0.0662
     31 H9         13.9282    5.2425   15.0677 H       1  <0>1        0.0677
     32 H10        10.6039    8.2589   14.0325 H       1  <0>1        0.0836
     33 H11        14.6761    3.5664   16.0150 H       1  <0>1        0.0660
     34 H12        15.6823    4.2171   14.6989 H       1  <0>1        0.0660
     35 H13        16.3925    3.1097   15.8978 H       1  <0>1        0.0660
     36 H14        17.7479    8.2611   19.4821 H       1  <0>1        0.0660
     37 H15        17.0086    9.2565   18.2051 H       1  <0>1        0.0660
     38 H16        16.0020    8.6056   19.5208 H       1  <0>1        0.0660
@<TRIPOS>BOND
     1     1     2    1
     2     1    23    1
     3     1    24    1
     4     1    25    1
     5     2     3    1
     6     3     8   ar
     7     3     4   ar
     8     4     5   ar
     9     4    26    1
    10     5     6   ar
    11     5    27    1
    12     6     7   ar
    13     7     8   ar
    14     7    28    1
    15     8     9    1
    16     9    18   ar
    17     9    10   ar
    18    10    11   ar
    19    10    29    1
    20    11    16   ar
    21    11    12   ar
    22    12    13   ar
    23    12    30    1
    24    13    14   ar
    25    13    21    1
    26    14    15   ar
    27    14    19    1
    28    15    16   ar
    29    15    31    1
    30    16    17   ar
    31    17    18   ar
    32    18    32    1
    33    19    20    1
    34    20    33    1
    35    20    34    1
    36    20    35    1
    37    21    22    1
    38    22    36    1
    39    22    37    1
    40    22    38    1
@<TRIPOS>MOLECULE
ZINC03815789
 39 41 0 0 0
SMALL
USER_CHARGES

@<TRIPOS>ATOM
      1 C1          9.0388   16.9764   18.3755 C.3     1  <0>1        0.0788
      2 O1          8.8798   15.7327   17.6899 O.3     1  <0>1       -0.4941
      3 C2          7.9522   14.8727   18.1809 C.ar    1  <0>1        0.1391
      4 C3          7.2010   15.1978   19.3055 C.ar    1  <0>1        0.0443
      5 C4          6.2628   14.2992   19.7719 C.ar    1  <0>1        0.1730
      6 C5          6.7667   12.7798   18.1104 C.ar    1  <0>1        0.1808
      7 C6          7.7287   13.6286   17.5712 C.ar    1  <0>1        0.0887
      8 C7          8.5045   13.2253   16.3732 C.ar    1  <0>1        0.0100
      9 C8          9.1273   11.9858   16.3285 C.ar    1  <0>1       -0.0430
     10 C9          9.8495   11.6516   15.1709 C.ar    1  <0>1        0.0047
     11 C10        10.5052   10.4135   15.0551 C.ar    1  <0>1       -0.0071
     12 C11        11.1975   10.1203   13.9171 C.ar    1  <0>1        0.1622
     13 C12        11.2621   11.0419   12.8605 C.ar    1  <0>1        0.1635
     14 C13        10.6357   12.2509   12.9457 C.ar    1  <0>1        0.0097
     15 C14         9.9133   12.5843   14.1042 C.ar    1  <0>1        0.0747
     16 N1          9.2914   13.7640   14.2060 N.ar    1  <0>1       -0.2542
     17 C15         8.6094   14.0919   15.2746 C.ar    1  <0>1        0.0363
     18 O2         11.9584   10.7257   11.7373 O.3     1  <0>1       -0.4914
     19 C16        11.9884   11.7036   10.6958 C.3     1  <0>1        0.0790
     20 O3         11.8313    8.9228   13.8050 O.3     1  <0>1       -0.4914
     21 C17        11.7280    8.0278   14.9141 C.3     1  <0>1        0.0790
     22 H1          8.0957   17.5227   18.3603 H       1  <0>1        0.0660
     23 H2          9.3323   16.7871   19.4081 H       1  <0>1        0.0660
     24 H3          9.8094   17.5679   17.8813 H       1  <0>1        0.0660
     25 H4          7.3472   16.1440   19.8053 H       1  <0>1        0.0714
     26 H5          5.6747   14.5495   20.6424 H       1  <0>1        0.1377
     27 H6          6.5836   11.8193   17.6516 H       1  <0>1        0.1383
     28 H7          9.0584   11.2984   17.1587 H       1  <0>1        0.0631
     29 H8         10.4607    9.6981   15.8629 H       1  <0>1        0.0662
     30 H9         10.6942   12.9498   12.1244 H       1  <0>1        0.0677
     31 H10         8.1195   15.0536   15.3129 H       1  <0>1        0.0836
     32 H11        10.9716   11.9098   10.3616 H       1  <0>1        0.0660
     33 H12        12.4404   12.6213   11.0720 H       1  <0>1        0.0660
     34 H13        12.5761   11.3256    9.8593 H       1  <0>1        0.0660
     35 H14        12.2773    7.1122   14.6946 H       1  <0>1        0.0660
     36 H15        12.1484    8.4996   15.8021 H       1  <0>1        0.0660
     37 H16        10.6794    7.7887   15.0916 H       1  <0>1        0.0660
     38 N2          6.0211   13.0853   19.2050 N.ar    1  <0>1       -0.2165
     39 H17         5.3176   12.4393   19.5817 H       1  <0>1        0.4522
@<TRIPOS>BOND
     1     1     2    1
     2     1    22    1
     3     1    23    1
     4     1    24    1
     5     2     3    1
     6     3     7   ar
     7     3     4   ar
     8     4     5   ar
     9     4    25    1
    10     5    26    1
    11     5    38   ar
    12     6     7   ar
    13     6    27    1
    14     6    38   ar
    15     7     8    1
    16     8    17   ar
    17     8     9   ar
    18     9    10   ar
    19     9    28    1
    20    10    15   ar
    21    10    11   ar
    22    11    12   ar
    23    11    29    1
    24    12    13   ar
    25    12    20    1
    26    13    14   ar
    27    13    18    1
    28    14    15   ar
    29    14    30    1
    30    15    16   ar
    31    16    17   ar
    32    17    31    1
    33    18    19    1
    34    19    32    1
    35    19    33    1
    36    19    34    1
    37    20    21    1
    38    21    35    1
    39    21    36    1
    40    21    37    1
    41    38    39    1
@<TRIPOS>MOLECULE
ZINC03815790
 44 46 0 0 0
SMALL
USER_CHARGES

@<TRIPOS>ATOM
      1 C1          9.1978   15.2790    6.5285 C.3     1  <0>1       -0.0433
      2 C2          6.8552   14.6824    6.3904 C.3     1  <0>1       -0.0433
      3 C3          8.2523   13.7114    8.1132 C.3     1  <0>1       -0.0293
      4 C4          9.2757   14.0537    9.1979 C.3     1  <0>1        0.0217
      5 C5          9.5401   12.8165   10.0583 C.3     1  <0>1        0.0944
      6 O1         10.4959   13.1362   11.0714 O.3     1  <0>1       -0.4917
      7 C6         10.8443   12.1394   11.9280 C.ar    1  <0>1        0.1226
      8 C7         10.2720   10.8777   11.7907 C.ar    1  <0>1       -0.0179
      9 C8         10.6157    9.8586   12.6522 C.ar    1  <0>1       -0.0323
     10 C9         11.5378   10.0890   13.6635 C.ar    1  <0>1        0.0735
     11 C10        12.1197   11.3594   13.8087 C.ar    1  <0>1        0.0928
     12 C11        11.7630   12.3848   12.9287 C.ar    1  <0>1        0.0075
     13 N1         12.9698   11.2882   14.8654 N.ar    1  <0>1       -0.2353
     14 C12        12.9485   10.0874   15.3661 C.ar    1  <0>1        0.1015
     15 N2         12.0824    9.3037   14.6650 N.ar    1  <0>1       -0.2985
     16 C13        11.8001    7.9530   14.9083 C.ar    1  <0>1        0.0481
     17 C14        10.4833    7.5249   15.0098 C.ar    1  <0>1       -0.0378
     18 C15        10.2081    6.1917   15.2435 C.ar    1  <0>1       -0.0598
     19 C16        11.2428    5.2858   15.3883 C.ar    1  <0>1       -0.0616
     20 C17        12.5554    5.7103   15.2938 C.ar    1  <0>1       -0.0598
     21 C18        12.8369    7.0410   15.0541 C.ar    1  <0>1       -0.0378
     22 H1          9.4912   14.4561    5.8767 H       1  <0>1        0.0777
     23 H2          8.9823   16.1610    5.9256 H       1  <0>1        0.0777
     24 H3         10.0100   15.5015    7.2206 H       1  <0>1        0.0777
     25 H4          5.9645   14.4713    6.9821 H       1  <0>1        0.0777
     26 H5          6.6894   15.5771    5.7904 H       1  <0>1        0.0777
     27 H6          7.0638   13.8379    5.7336 H       1  <0>1        0.0777
     28 H7          8.6418   12.9093    7.4864 H       1  <0>1        0.0815
     29 H8          7.3221   13.3882    8.5805 H       1  <0>1        0.0815
     30 H9          8.8863   14.8558    9.8248 H       1  <0>1        0.0350
     31 H10        10.2059   14.3768    8.7306 H       1  <0>1        0.0350
     32 H11         9.9296   12.0144    9.4314 H       1  <0>1        0.0698
     33 H12         8.6098   12.4933   10.5256 H       1  <0>1        0.0698
     34 H13         9.5540   10.6967   11.0045 H       1  <0>1        0.0655
     35 H14        10.1679    8.8821   12.5408 H       1  <0>1        0.0640
     36 H15        12.2046   13.3651   13.0309 H       1  <0>1        0.0676
     37 H16        13.5325    9.7597   16.2134 H       1  <0>1        0.1032
     38 H17         9.6748    8.2328   14.9016 H       1  <0>1        0.0638
     39 H18         9.1839    5.8572   15.3178 H       1  <0>1        0.0618
     40 H19        11.0252    4.2446   15.5751 H       1  <0>1        0.0618
     41 H20        13.3614    5.0004   15.4073 H       1  <0>1        0.0618
     42 H21        13.8624    7.3718   14.9797 H       1  <0>1        0.0638
     43 N3          7.9920   14.9209    7.3047 N.4     1  <0>1        0.2310
     44 H22         7.7570   15.6980    7.9333 H       1  <0>1        0.2028
@<TRIPOS>BOND
     1     1    22    1
     2     1    23    1
     3     1    24    1
     4     1    43    1
     5     2    25    1
     6     2    26    1
     7     2    27    1
     8     2    43    1
     9     3     4    1
    10     3    28    1
    11     3    29    1
    12     3    43    1
    13     4     5    1
    14     4    30    1
    15     4    31    1
    16     5     6    1
    17     5    32    1
    18     5    33    1
    19     6     7    1
    20     7    12   ar
    21     7     8   ar
    22     8     9   ar
    23     8    34    1
    24     9    10   ar
    25     9    35    1
    26    10    15   ar
    27    10    11   ar
    28    11    12   ar
    29    11    13   ar
    30    12    36    1
    31    13    14   ar
    32    14    15   ar
    33    14    37    1
    34    15    16    1
    35    16    21   ar
    36    16    17   ar
    37    17    18   ar
    38    17    38    1
    39    18    19   ar
    40    18    39    1
    41    19    20   ar
    42    19    40    1
    43    20    21   ar
    44    20    41    1
    45    21    42    1
    46    43    44    1
@<TRIPOS>MOLECULE
ZINC03815790
 45 47 0 0 0
SMALL
USER_CHARGES

@<TRIPOS>ATOM
      1 C1         14.9501    2.8953   15.8746 C.3     1  <0>1       -0.0433
      2 C2         13.2705    1.4078   14.9643 C.3     1  <0>1       -0.0433
      3 C3         12.7592    3.7506   15.2995 C.3     1  <0>1       -0.0293
      4 C4         13.2804    5.1667   15.0462 C.3     1  <0>1        0.0217
      5 C5         12.1910    6.1817   15.3978 C.3     1  <0>1        0.0944
      6 O1         12.6778    7.5042   15.1613 O.3     1  <0>1       -0.4917
      7 C6         11.8272    8.5316   15.4253 C.ar    1  <0>1        0.1226
      8 C7         10.5471    8.2645   15.9031 C.ar    1  <0>1       -0.0179
      9 C8          9.6747    9.2961   16.1743 C.ar    1  <0>1       -0.0323
     10 C9         10.0723   10.6101   15.9707 C.ar    1  <0>1        0.0714
     11 C10        11.3624   10.8879   15.4888 C.ar    1  <0>1        0.0679
     12 C11        12.2380    9.8330   15.2174 C.ar    1  <0>1        0.0054
     13 C12        10.3537   12.7941   15.7704 C.ar    1  <0>1        0.0780
     14 N1          9.4562   11.8381   16.1399 N.ar    1  <0>1       -0.3001
     15 C13         8.1543   12.0571   16.6093 C.ar    1  <0>1        0.0480
     16 C14         7.0868   11.3717   16.0450 C.ar    1  <0>1       -0.0378
     17 C15         5.8054   11.5852   16.5141 C.ar    1  <0>1       -0.0598
     18 C16         5.5836   12.4895   17.5366 C.ar    1  <0>1       -0.0616
     19 C17         6.6440   13.1781   18.0964 C.ar    1  <0>1       -0.0598
     20 C18         7.9285   12.9644   17.6358 C.ar    1  <0>1       -0.0378
     21 H1         14.6200    2.7136   16.8974 H       1  <0>1        0.0777
     22 H2         15.7097    2.1626   15.6024 H       1  <0>1        0.0777
     23 H3         15.3702    3.8985   15.8013 H       1  <0>1        0.0777
     24 H4         12.4695    1.3296   14.2291 H       1  <0>1        0.0777
     25 H5         14.0657    0.7066   14.7113 H       1  <0>1        0.0777
     26 H6         12.8795    1.1722   15.9541 H       1  <0>1        0.0777
     27 H7         12.4898    3.6452   16.3504 H       1  <0>1        0.0815
     28 H8         11.8810    3.5705   14.6795 H       1  <0>1        0.0815
     29 H9         13.5498    5.2721   13.9954 H       1  <0>1        0.0350
     30 H10        14.1586    5.3468   15.6663 H       1  <0>1        0.0350
     31 H11        11.9216    6.0762   16.4488 H       1  <0>1        0.0698
     32 H12        11.3128    6.0016   14.7778 H       1  <0>1        0.0698
     33 H13        10.2358    7.2426   16.0618 H       1  <0>1        0.0655
     34 H14         8.6828    9.0825   16.5444 H       1  <0>1        0.0640
     35 H15        13.2322   10.0352   14.8470 H       1  <0>1        0.0675
     36 H16        10.1683   13.8578   15.7908 H       1  <0>1        0.1012
     37 H17         7.2588   10.6690   15.2431 H       1  <0>1        0.0638
     38 H18         4.9751   11.0488   16.0788 H       1  <0>1        0.0618
     39 H19         4.5802   12.6578   17.8989 H       1  <0>1        0.0618
     40 H20         6.4677   13.8837   18.8949 H       1  <0>1        0.0618
     41 H21         8.7563   13.5021   18.0740 H       1  <0>1        0.0638
     42 N2         13.8144    2.7819   14.9355 N.4     1  <0>1        0.2310
     43 H22        14.1448    2.9900   13.9858 H       1  <0>1        0.2028
     44 N3         11.4683   12.2392   15.3896 N.ar    1  <0>1       -0.3454
     45 H23        12.3003   12.7452   15.0642 H       1  <0>1        0.1668
@<TRIPOS>BOND
     1     1    21    1
     2     1    22    1
     3     1    23    1
     4     1    42    1
     5     2    24    1
     6     2    25    1
     7     2    26    1
     8     2    42    1
     9     3     4    1
    10     3    27    1
    11     3    28    1
    12     3    42    1
    13     4     5    1
    14     4    29    1
    15     4    30    1
    16     5     6    1
    17     5    31    1
    18     5    32    1
    19     6     7    1
    20     7    12   ar
    21     7     8   ar
    22     8     9   ar
    23     8    33    1
    24     9    10   ar
    25     9    34    1
    26    10    14   ar
    27    10    11   ar
    28    11    12   ar
    29    11    44   ar
    30    12    35    1
    31    13    14   ar
    32    13    36    1
    33    13    44   ar
    34    14    15    1
    35    15    20   ar
    36    15    16   ar
    37    16    17   ar
    38    16    37    1
    39    17    18   ar
    40    17    38    1
    41    18    19   ar
    42    18    39    1
    43    19    20   ar
    44    19    40    1
    45    20    41    1
    46    42    43    1
    47    44    45    1
@<TRIPOS>MOLECULE
ZINC03815791
 47 49 0 0 0
SMALL
USER_CHARGES

@<TRIPOS>ATOM
      1 C1         16.3219    2.9349   15.9590 C.3     1  <0>1       -0.0433
      2 C2         16.9322    5.2119   15.4066 C.3     1  <0>1       -0.0433
      3 C3         14.5978    4.5880   15.5617 C.3     1  <0>1       -0.0323
      4 C4         14.1516    6.0048   15.9280 C.3     1  <0>1       -0.0095
      5 C5         12.7418    6.2515   15.3870 C.3     1  <0>1       -0.0138
      6 C6         12.2956    7.6683   15.7533 C.3     1  <0>1        0.0898
      7 O1         10.9789    7.8987   15.2480 O.3     1  <0>1       -0.4919
      8 C7         10.4300    9.1191   15.4889 C.ar    1  <0>1        0.1226
      9 C8         11.1515   10.0739   16.2003 C.ar    1  <0>1       -0.0179
     10 C9         10.6071   11.3146   16.4519 C.ar    1  <0>1       -0.0323
     11 C10         9.3321   11.6164   15.9942 C.ar    1  <0>1        0.0735
     12 C11         8.5977   10.6584   15.2756 C.ar    1  <0>1        0.0928
     13 C12         9.1607    9.4037   15.0268 C.ar    1  <0>1        0.0075
     14 N1          7.4045   11.2262   14.9620 N.ar    1  <0>1       -0.2353
     15 C13         7.3593   12.4397   15.4293 C.ar    1  <0>1        0.1015
     16 N2          8.5213   12.7354   16.0759 N.ar    1  <0>1       -0.2985
     17 C14         8.8390   13.9481   16.7017 C.ar    1  <0>1        0.0481
     18 C15         9.3223   13.9536   18.0034 C.ar    1  <0>1       -0.0378
     19 C16         9.6404   15.1502   18.6153 C.ar    1  <0>1       -0.0598
     20 C17         9.4667   16.3428   17.9373 C.ar    1  <0>1       -0.0616
     21 C18         8.9798   16.3410   16.6430 C.ar    1  <0>1       -0.0598
     22 C19         8.6657   15.1472   16.0235 C.ar    1  <0>1       -0.0378
     23 H1         16.2939    2.6412   14.9098 H       1  <0>1        0.0777
     24 H2         17.3282    2.7875   16.3509 H       1  <0>1        0.0777
     25 H3         15.6183    2.3252   16.5260 H       1  <0>1        0.0777
     26 H4         16.6724    6.2575   15.5717 H       1  <0>1        0.0777
     27 H5         17.9256    5.0163   15.8101 H       1  <0>1        0.0777
     28 H6         16.9263    5.0006   14.3372 H       1  <0>1        0.0777
     29 H7         13.9091    3.8655   15.9996 H       1  <0>1        0.0814
     30 H8         14.6002    4.4767   14.4773 H       1  <0>1        0.0814
     31 H9         14.8403    6.7273   15.4901 H       1  <0>1        0.0318
     32 H10        14.1493    6.1161   17.0123 H       1  <0>1        0.0318
     33 H11        12.0531    5.5290   15.8248 H       1  <0>1        0.0300
     34 H12        12.7442    6.1402   14.3027 H       1  <0>1        0.0300
     35 H13        12.9844    8.3908   15.3154 H       1  <0>1        0.0696
     36 H14        12.2932    7.7796   16.8376 H       1  <0>1        0.0696
     37 H15        12.1436    9.8407   16.5576 H       1  <0>1        0.0655
     38 H16        11.1716   12.0508   17.0048 H       1  <0>1        0.0640
     39 H17         8.6051    8.6599   14.4750 H       1  <0>1        0.0676
     40 H18         6.5230   13.1142   15.3200 H       1  <0>1        0.1032
     41 H19         9.4535   13.0227   18.5351 H       1  <0>1        0.0638
     42 H20        10.0209   15.1548   19.6262 H       1  <0>1        0.0618
     43 H21         9.7122   17.2775   18.4194 H       1  <0>1        0.0618
     44 H22         8.8452   17.2740   16.1160 H       1  <0>1        0.0618
     45 H23         8.2861   15.1464   15.0124 H       1  <0>1        0.0638
     46 N3         15.9515    4.3579   16.1091 N.4     1  <0>1        0.2309
     47 H24        15.9532    4.5995   17.1069 H       1  <0>1        0.2028
@<TRIPOS>BOND
     1     1    23    1
     2     1    24    1
     3     1    25    1
     4     1    46    1
     5     2    26    1
     6     2    27    1
     7     2    28    1
     8     2    46    1
     9     3     4    1
    10     3    29    1
    11     3    30    1
    12     3    46    1
    13     4     5    1
    14     4    31    1
    15     4    32    1
    16     5     6    1
    17     5    33    1
    18     5    34    1
    19     6     7    1
    20     6    35    1
    21     6    36    1
    22     7     8    1
    23     8    13   ar
    24     8     9   ar
    25     9    10   ar
    26     9    37    1
    27    10    11   ar
    28    10    38    1
    29    11    16   ar
    30    11    12   ar
    31    12    13   ar
    32    12    14   ar
    33    13    39    1
    34    14    15   ar
    35    15    16   ar
    36    15    40    1
    37    16    17    1
    38    17    22   ar
    39    17    18   ar
    40    18    19   ar
    41    18    41    1
    42    19    20   ar
    43    19    42    1
    44    20    21   ar
    45    20    43    1
    46    21    22   ar
    47    21    44    1
    48    22    45    1
    49    46    47    1
@<TRIPOS>MOLECULE
ZINC03815791
 48 50 0 0 0
SMALL
USER_CHARGES

@<TRIPOS>ATOM
      1 C1         16.3219    2.9349   15.9590 C.3     1  <0>1       -0.0433
      2 C2         16.9322    5.2119   15.4066 C.3     1  <0>1       -0.0433
      3 C3         14.5978    4.5880   15.5617 C.3     1  <0>1       -0.0323
      4 C4         14.1516    6.0048   15.9280 C.3     1  <0>1       -0.0095
      5 C5         12.7418    6.2515   15.3870 C.3     1  <0>1       -0.0138
      6 C6         12.2956    7.6683   15.7533 C.3     1  <0>1        0.0898
      7 O1         10.9789    7.8987   15.2480 O.3     1  <0>1       -0.4919
      8 C7         10.4300    9.1191   15.4889 C.ar    1  <0>1        0.1226
      9 C8         11.1515   10.0739   16.2003 C.ar    1  <0>1       -0.0179
     10 C9         10.6071   11.3146   16.4519 C.ar    1  <0>1       -0.0323
     11 C10         9.3321   11.6164   15.9942 C.ar    1  <0>1        0.0714
     12 C11         8.5977   10.6584   15.2756 C.ar    1  <0>1        0.0679
     13 C12         9.1607    9.4037   15.0268 C.ar    1  <0>1        0.0054
     14 C13         7.3593   12.4397   15.4293 C.ar    1  <0>1        0.0780
     15 N1          8.5213   12.7354   16.0759 N.ar    1  <0>1       -0.3001
     16 C14         8.8390   13.9481   16.7017 C.ar    1  <0>1        0.0480
     17 C15         9.3223   13.9536   18.0034 C.ar    1  <0>1       -0.0378
     18 C16         9.6404   15.1502   18.6153 C.ar    1  <0>1       -0.0598
     19 C17         9.4667   16.3428   17.9373 C.ar    1  <0>1       -0.0616
     20 C18         8.9798   16.3410   16.6430 C.ar    1  <0>1       -0.0598
     21 C19         8.6657   15.1472   16.0235 C.ar    1  <0>1       -0.0378
     22 H1         16.2939    2.6412   14.9098 H       1  <0>1        0.0777
     23 H2         17.3282    2.7875   16.3509 H       1  <0>1        0.0777
     24 H3         15.6183    2.3252   16.5260 H       1  <0>1        0.0777
     25 H4         16.6724    6.2575   15.5717 H       1  <0>1        0.0777
     26 H5         17.9256    5.0163   15.8101 H       1  <0>1        0.0777
     27 H6         16.9263    5.0006   14.3372 H       1  <0>1        0.0777
     28 H7         13.9091    3.8655   15.9996 H       1  <0>1        0.0814
     29 H8         14.6002    4.4767   14.4773 H       1  <0>1        0.0814
     30 H9         14.8403    6.7273   15.4901 H       1  <0>1        0.0318
     31 H10        14.1493    6.1161   17.0123 H       1  <0>1        0.0318
     32 H11        12.0531    5.5290   15.8248 H       1  <0>1        0.0300
     33 H12        12.7442    6.1402   14.3027 H       1  <0>1        0.0300
     34 H13        12.9844    8.3908   15.3154 H       1  <0>1        0.0696
     35 H14        12.2932    7.7796   16.8376 H       1  <0>1        0.0696
     36 H15        12.1436    9.8407   16.5576 H       1  <0>1        0.0655
     37 H16        11.1716   12.0508   17.0048 H       1  <0>1        0.0640
     38 H17         8.6051    8.6599   14.4750 H       1  <0>1        0.0675
     39 H18         6.5230   13.1142   15.3200 H       1  <0>1        0.1012
     40 H19         9.4535   13.0227   18.5351 H       1  <0>1        0.0638
     41 H20        10.0209   15.1548   19.6262 H       1  <0>1        0.0618
     42 H21         9.7122   17.2775   18.4194 H       1  <0>1        0.0618
     43 H22         8.8452   17.2740   16.1160 H       1  <0>1        0.0618
     44 H23         8.2861   15.1464   15.0124 H       1  <0>1        0.0638
     45 N2         15.9515    4.3579   16.1091 N.4     1  <0>1        0.2309
     46 H24        15.9532    4.5995   17.1069 H       1  <0>1        0.2028
     47 N3          7.4033   11.2255   14.9612 N.ar    1  <0>1       -0.3454
     48 H25         6.6507   10.7665   14.4348 H       1  <0>1        0.1668
@<TRIPOS>BOND
     1     1    22    1
     2     1    23    1
     3     1    24    1
     4     1    45    1
     5     2    25    1
     6     2    26    1
     7     2    27    1
     8     2    45    1
     9     3     4    1
    10     3    28    1
    11     3    29    1
    12     3    45    1
    13     4     5    1
    14     4    30    1
    15     4    31    1
    16     5     6    1
    17     5    32    1
    18     5    33    1
    19     6     7    1
    20     6    34    1
    21     6    35    1
    22     7     8    1
    23     8    13   ar
    24     8     9   ar
    25     9    10   ar
    26     9    36    1
    27    10    11   ar
    28    10    37    1
    29    11    15   ar
    30    11    12   ar
    31    12    13   ar
    32    12    47   ar
    33    13    38    1
    34    14    15   ar
    35    14    39    1
    36    14    47   ar
    37    15    16    1
    38    16    21   ar
    39    16    17   ar
    40    17    18   ar
    41    17    40    1
    42    18    19   ar
    43    18    41    1
    44    19    20   ar
    45    19    42    1
    46    20    21   ar
    47    20    43    1
    48    21    44    1
    49    45    46    1
    50    47    48    1
@<TRIPOS>MOLECULE
ZINC03815792
 32 34 0 0 0
SMALL
USER_CHARGES

@<TRIPOS>ATOM
      1 C1         14.3077   15.5419   18.6508 C.3     1  <0>1       -0.0307
      2 C2         14.0815   14.0969   18.2018 C.3     1  <0>1        0.0868
      3 O1         13.2891   14.0860   17.0127 O.3     1  <0>1       -0.4922
      4 C3         12.9945   12.8709   16.4784 C.ar    1  <0>1        0.1226
      5 C4         13.4626   11.7128   17.0932 C.ar    1  <0>1       -0.0179
      6 C5         13.1714   10.4750   16.5623 C.ar    1  <0>1       -0.0323
      7 C6         12.4069   10.3796   15.4080 C.ar    1  <0>1        0.0735
      8 C7         11.9304   11.5435   14.7819 C.ar    1  <0>1        0.0928
      9 C8         12.2325   12.7931   15.3299 C.ar    1  <0>1        0.0075
     10 N1         11.2238   11.1471   13.6920 N.ar    1  <0>1       -0.2353
     11 C9         11.2348    9.8485   13.6099 C.ar    1  <0>1        0.1015
     12 N2         11.9501    9.3208   14.6423 N.ar    1  <0>1       -0.2985
     13 C10        12.1760    7.9598   14.8869 C.ar    1  <0>1        0.0481
     14 C11        13.4652    7.4994   15.1193 C.ar    1  <0>1       -0.0378
     15 C12        13.6838    6.1583   15.3667 C.ar    1  <0>1       -0.0598
     16 C13        12.6221    5.2723   15.3704 C.ar    1  <0>1       -0.0616
     17 C14        11.3378    5.7269   15.1333 C.ar    1  <0>1       -0.0598
     18 C15        11.1119    7.0679   14.8918 C.ar    1  <0>1       -0.0378
     19 H1         14.9121   15.5501   19.5579 H       1  <0>1        0.0262
     20 H2         14.8258   16.0900   17.8639 H       1  <0>1        0.0262
     21 H3         13.3462   16.0150   18.8506 H       1  <0>1        0.0262
     22 H4         13.5634   13.5488   18.9888 H       1  <0>1        0.0694
     23 H5         15.0430   13.6237   18.0021 H       1  <0>1        0.0694
     24 H6         14.0579   11.7851   17.9914 H       1  <0>1        0.0655
     25 H7         13.5377    9.5803   17.0438 H       1  <0>1        0.0640
     26 H8         11.8710   13.6943   14.8570 H       1  <0>1        0.0676
     27 H9         10.7479    9.2731   12.8365 H       1  <0>1        0.1032
     28 H10        14.2954    8.1901   15.1113 H       1  <0>1        0.0638
     29 H11        14.6857    5.8004   15.5527 H       1  <0>1        0.0618
     30 H12        12.7962    4.2234   15.5594 H       1  <0>1        0.0618
     31 H13        10.5105    5.0326   15.1372 H       1  <0>1        0.0618
     32 H14        10.1085    7.4223   14.7073 H       1  <0>1        0.0638
@<TRIPOS>BOND
     1     1     2    1
     2     1    19    1
     3     1    20    1
     4     1    21    1
     5     2     3    1
     6     2    22    1
     7     2    23    1
     8     3     4    1
     9     4     9   ar
    10     4     5   ar
    11     5     6   ar
    12     5    24    1
    13     6     7   ar
    14     6    25    1
    15     7    12   ar
    16     7     8   ar
    17     8     9   ar
    18     8    10   ar
    19     9    26    1
    20    10    11   ar
    21    11    12   ar
    22    11    27    1
    23    12    13    1
    24    13    18   ar
    25    13    14   ar
    26    14    15   ar
    27    14    28    1
    28    15    16   ar
    29    15    29    1
    30    16    17   ar
    31    16    30    1
    32    17    18   ar
    33    17    31    1
    34    18    32    1
@<TRIPOS>MOLECULE
ZINC03815792
 33 35 0 0 0
SMALL
USER_CHARGES

@<TRIPOS>ATOM
      1 C1          9.2765   14.0534    9.1973 C.3     1  <0>1       -0.0307
      2 C2          9.5404   12.8164   10.0581 C.3     1  <0>1        0.0868
      3 O1         10.4963   13.1361   11.0711 O.3     1  <0>1       -0.4922
      4 C3         10.8443   12.1394   11.9280 C.ar    1  <0>1        0.1226
      5 C4         10.2723   10.8776   11.7904 C.ar    1  <0>1       -0.0179
      6 C5         10.6160    9.8585   12.6519 C.ar    1  <0>1       -0.0323
      7 C6         11.5378   10.0890   13.6635 C.ar    1  <0>1        0.0714
      8 C7         12.1197   11.3594   13.8087 C.ar    1  <0>1        0.0679
      9 C8         11.7630   12.3848   12.9287 C.ar    1  <0>1        0.0054
     10 C9         12.9485   10.0874   15.3661 C.ar    1  <0>1        0.0780
     11 N1         12.0824    9.3037   14.6650 N.ar    1  <0>1       -0.3001
     12 C10        11.8001    7.9530   14.9083 C.ar    1  <0>1        0.0480
     13 C11        10.4833    7.5249   15.0098 C.ar    1  <0>1       -0.0378
     14 C12        10.2081    6.1916   15.2430 C.ar    1  <0>1       -0.0598
     15 C13        11.2428    5.2858   15.3883 C.ar    1  <0>1       -0.0616
     16 C14        12.5554    5.7103   15.2938 C.ar    1  <0>1       -0.0598
     17 C15        12.8369    7.0410   15.0541 C.ar    1  <0>1       -0.0378
     18 H1          8.5474   13.8095    8.4246 H       1  <0>1        0.0262
     19 H2          8.8872   14.8558    9.8240 H       1  <0>1        0.0262
     20 H3         10.2068   14.3762    8.7300 H       1  <0>1        0.0262
     21 H4          9.9297   12.0140    9.4314 H       1  <0>1        0.0694
     22 H5          8.6100   12.4936   10.5253 H       1  <0>1        0.0694
     23 H6          9.5546   10.6965   11.0040 H       1  <0>1        0.0655
     24 H7         10.1686    8.8819   12.5402 H       1  <0>1        0.0640
     25 H8         12.2046   13.3651   13.0309 H       1  <0>1        0.0675
     26 H9         13.5323    9.7598   16.2136 H       1  <0>1        0.1012
     27 H10         9.6748    8.2328   14.9016 H       1  <0>1        0.0638
     28 H11         9.1839    5.8571   15.3169 H       1  <0>1        0.0618
     29 H12        11.0252    4.2446   15.5754 H       1  <0>1        0.0618
     30 H13        13.3614    5.0004   15.4073 H       1  <0>1        0.0618
     31 H14        13.8624    7.3718   14.9797 H       1  <0>1        0.0638
     32 N2         12.9708   11.2894   14.8660 N.ar    1  <0>1       -0.3454
     33 H15        13.5437   12.0658   15.2168 H       1  <0>1        0.1668
@<TRIPOS>BOND
     1     1     2    1
     2     1    18    1
     3     1    19    1
     4     1    20    1
     5     2     3    1
     6     2    21    1
     7     2    22    1
     8     3     4    1
     9     4     9   ar
    10     4     5   ar
    11     5     6   ar
    12     5    23    1
    13     6     7   ar
    14     6    24    1
    15     7    11   ar
    16     7     8   ar
    17     8     9   ar
    18     8    32   ar
    19     9    25    1
    20    10    11   ar
    21    10    26    1
    22    10    32   ar
    23    11    12    1
    24    12    17   ar
    25    12    13   ar
    26    13    14   ar
    27    13    27    1
    28    14    15   ar
    29    14    28    1
    30    15    16   ar
    31    15    29    1
    32    16    17   ar
    33    16    30    1
    34    17    31    1
    35    32    33    1
@<TRIPOS>MOLECULE
ZINC03815793
 35 37 0 0 0
SMALL
USER_CHARGES

@<TRIPOS>ATOM
      1 C1         15.3751    0.8461   15.8338 C.3     1  <0>1       -0.0622
      2 C2         13.9703    1.4446   15.7369 C.3     1  <0>1       -0.0215
      3 C3         14.0734    2.9579   15.5361 C.3     1  <0>1        0.0893
      4 O1         12.7614    3.5169   15.4456 O.3     1  <0>1       -0.4919
      5 C4         12.6745    4.8617   15.2650 C.ar    1  <0>1        0.1226
      6 C5         13.8359    5.6245   15.1777 C.ar    1  <0>1       -0.0179
      7 C6         13.7623    6.9884   14.9952 C.ar    1  <0>1       -0.0323
      8 C7         12.5241    7.6076   14.8975 C.ar    1  <0>1        0.0735
      9 C8         11.3475    6.8448   14.9847 C.ar    1  <0>1        0.0928
     10 C9         11.4352    5.4624   15.1698 C.ar    1  <0>1        0.0075
     11 N1         10.3056    7.7065   14.8571 N.ar    1  <0>1       -0.2353
     12 C10        10.7540    8.9179   14.7013 C.ar    1  <0>1        0.1015
     13 N2         12.1162    8.9181   14.7181 N.ar    1  <0>1       -0.2985
     14 C11        12.9491   10.0356   14.5744 C.ar    1  <0>1        0.0481
     15 C12        13.9692   10.2650   15.4879 C.ar    1  <0>1       -0.0378
     16 C13        14.7925   11.3641   15.3400 C.ar    1  <0>1       -0.0598
     17 C14        14.5942   12.2420   14.2902 C.ar    1  <0>1       -0.0616
     18 C15        13.5752   12.0195   13.3822 C.ar    1  <0>1       -0.0598
     19 C16        12.7525   10.9189   13.5213 C.ar    1  <0>1       -0.0378
     20 H1         15.3016   -0.2319   15.9768 H       1  <0>1        0.0231
     21 H2         15.9228    1.0542   14.9148 H       1  <0>1        0.0231
     22 H3         15.9015    1.2898   16.6789 H       1  <0>1        0.0231
     23 H4         13.4225    1.2365   16.6559 H       1  <0>1        0.0295
     24 H5         13.4440    1.0010   14.8918 H       1  <0>1        0.0295
     25 H6         14.6212    3.1660   14.6170 H       1  <0>1        0.0696
     26 H7         14.5998    3.4015   16.3812 H       1  <0>1        0.0696
     27 H8         14.8003    5.1444   15.2539 H       1  <0>1        0.0655
     28 H9         14.6669    7.5747   14.9287 H       1  <0>1        0.0640
     29 H10        10.5371    4.8664   15.2377 H       1  <0>1        0.0676
     30 H11        10.1365    9.7952   14.5764 H       1  <0>1        0.1032
     31 H12        14.1215    9.5823   16.3108 H       1  <0>1        0.0638
     32 H13        15.5892   11.5405   16.0476 H       1  <0>1        0.0618
     33 H14        15.2367   13.1030   14.1790 H       1  <0>1        0.0618
     34 H15        13.4228   12.7070   12.5633 H       1  <0>1        0.0618
     35 H16        11.9572   10.7454   12.8114 H       1  <0>1        0.0638
@<TRIPOS>BOND
     1     1     2    1
     2     1    20    1
     3     1    21    1
     4     1    22    1
     5     2     3    1
     6     2    23    1
     7     2    24    1
     8     3     4    1
     9     3    25    1
    10     3    26    1
    11     4     5    1
    12     5    10   ar
    13     5     6   ar
    14     6     7   ar
    15     6    27    1
    16     7     8   ar
    17     7    28    1
    18     8    13   ar
    19     8     9   ar
    20     9    10   ar
    21     9    11   ar
    22    10    29    1
    23    11    12   ar
    24    12    13   ar
    25    12    30    1
    26    13    14    1
    27    14    19   ar
    28    14    15   ar
    29    15    16   ar
    30    15    31    1
    31    16    17   ar
    32    16    32    1
    33    17    18   ar
    34    17    33    1
    35    18    19   ar
    36    18    34    1
    37    19    35    1
@<TRIPOS>MOLECULE
ZINC03815793
 36 38 0 0 0
SMALL
USER_CHARGES

@<TRIPOS>ATOM
      1 C1         17.4164    3.7658   16.0117 C.3     1  <0>1       -0.0622
      2 C2         15.9376    3.3922   15.8903 C.3     1  <0>1       -0.0215
      3 C3         15.1079    4.6589   15.6715 C.3     1  <0>1        0.0893
      4 O1         13.7268    4.3100   15.5581 O.3     1  <0>1       -0.4919
      5 C4         12.8473    5.3278   15.3594 C.ar    1  <0>1        0.1226
      6 C5         13.3121    6.6374   15.2763 C.ar    1  <0>1       -0.0179
      7 C6         12.4317    7.6784   15.0755 C.ar    1  <0>1       -0.0323
      8 C7         11.0731    7.4220   14.9551 C.ar    1  <0>1        0.0714
      9 C8         10.5962    6.1031   15.0378 C.ar    1  <0>1        0.0679
     10 C9         11.4990    5.0560   15.2416 C.ar    1  <0>1        0.0054
     11 C10         8.8746    7.3939   14.7209 C.ar    1  <0>1        0.0780
     12 N1          9.9587    8.2182   14.7541 N.ar    1  <0>1       -0.3001
     13 C11         9.9484    9.6115   14.6061 C.ar    1  <0>1        0.0480
     14 C12        10.6060   10.4139   15.5289 C.ar    1  <0>1       -0.0378
     15 C13        10.5993   11.7867   15.3769 C.ar    1  <0>1       -0.0598
     16 C14         9.9285   12.3627   14.3137 C.ar    1  <0>1       -0.0616
     17 C15         9.2675   11.5665   13.3964 C.ar    1  <0>1       -0.0598
     18 C16         9.2758   10.1928   13.5396 C.ar    1  <0>1       -0.0378
     19 H1         18.0075    2.8634   16.1675 H       1  <0>1        0.0231
     20 H2         17.7425    4.2602   15.0967 H       1  <0>1        0.0231
     21 H3         17.5526    4.4400   16.8573 H       1  <0>1        0.0231
     22 H4         15.6115    2.8978   16.8052 H       1  <0>1        0.0295
     23 H5         15.8015    2.7181   15.0446 H       1  <0>1        0.0295
     24 H6         15.4341    5.1534   14.7564 H       1  <0>1        0.0696
     25 H7         15.2440    5.3331   16.5171 H       1  <0>1        0.0696
     26 H8         14.3689    6.8389   15.3701 H       1  <0>1        0.0655
     27 H9         12.7984    8.6923   15.0124 H       1  <0>1        0.0640
     28 H10        11.1433    4.0383   15.3063 H       1  <0>1        0.0675
     29 H11         7.8546    7.7185   14.5774 H       1  <0>1        0.1012
     30 H12        11.1260    9.9648   16.3622 H       1  <0>1        0.0638
     31 H13        11.1146   12.4112   16.0917 H       1  <0>1        0.0618
     32 H14         9.9211   13.4366   14.1992 H       1  <0>1        0.0618
     33 H15         8.7445   12.0193   12.5670 H       1  <0>1        0.0618
     34 H16         8.7599    9.5715   12.8224 H       1  <0>1        0.0638
     35 N2          9.2466    6.1572   14.8868 N.ar    1  <0>1       -0.3454
     36 H17         8.6166    5.3466   14.9013 H       1  <0>1        0.1668
@<TRIPOS>BOND
     1     1     2    1
     2     1    19    1
     3     1    20    1
     4     1    21    1
     5     2     3    1
     6     2    22    1
     7     2    23    1
     8     3     4    1
     9     3    24    1
    10     3    25    1
    11     4     5    1
    12     5    10   ar
    13     5     6   ar
    14     6     7   ar
    15     6    26    1
    16     7     8   ar
    17     7    27    1
    18     8    12   ar
    19     8     9   ar
    20     9    10   ar
    21     9    35   ar
    22    10    28    1
    23    11    12   ar
    24    11    29    1
    25    11    35   ar
    26    12    13    1
    27    13    18   ar
    28    13    14   ar
    29    14    15   ar
    30    14    30    1
    31    15    16   ar
    32    15    31    1
    33    16    17   ar
    34    16    32    1
    35    17    18   ar
    36    17    33    1
    37    18    34    1
    38    35    36    1
@<TRIPOS>MOLECULE
ZINC03815794
 31 33 0 0 0
SMALL
USER_CHARGES

@<TRIPOS>ATOM
      1 C1         12.7293    9.3403   12.2699 C.3     1  <0>1        0.0788
      2 O1         12.0296   10.5728   12.0869 O.3     1  <0>1       -0.4950
      3 C2         11.3069   11.0349   13.1419 C.ar    1  <0>1        0.1222
      4 C3         11.2756   10.3095   14.3299 C.ar    1  <0>1       -0.0179
      5 C4         10.5466   10.7657   15.4065 C.ar    1  <0>1       -0.0323
      6 C5          9.8391   11.9557   15.3089 C.ar    1  <0>1        0.0735
      7 C6          9.8658   12.6935   14.1135 C.ar    1  <0>1        0.0928
      8 C7         10.6085   12.2202   13.0284 C.ar    1  <0>1        0.0075
      9 N1          9.0941   13.7938   14.3089 N.ar    1  <0>1       -0.2353
     10 C8          8.6076   13.7799   15.5161 C.ar    1  <0>1        0.1015
     11 N2          9.0337   12.6692   16.1791 N.ar    1  <0>1       -0.2985
     12 C9          8.7156   12.3147   17.4989 C.ar    1  <0>1        0.0482
     13 C10         8.2459   11.0390   17.7807 C.ar    1  <0>1       -0.0361
     14 C11         7.9374   10.6883   19.0799 C.ar    1  <0>1       -0.0391
     15 C12         8.0865   11.6154   20.1034 C.ar    1  <0>1        0.0247
     16 C13         8.5515   12.8932   19.8203 C.ar    1  <0>1       -0.0391
     17 C14         8.8652   13.2415   18.5217 C.ar    1  <0>1       -0.0361
     18 N3          7.7682   11.2624   21.4186 N.pl3   1  <0>1       -0.3580
     19 H1         12.0170    8.5497   12.5058 H       1  <0>1        0.0660
     20 H2         13.2638    9.0866   11.3546 H       1  <0>1        0.0660
     21 H3         13.4407    9.4446   13.0891 H       1  <0>1        0.0660
     22 H4         11.8254    9.3832   14.4077 H       1  <0>1        0.0655
     23 H5         10.5264   10.1985   16.3253 H       1  <0>1        0.0640
     24 H6         10.6362   12.7796   12.1050 H       1  <0>1        0.0676
     25 H7          7.9573   14.5363   15.9299 H       1  <0>1        0.1032
     26 H8          8.1257   10.3196   16.9842 H       1  <0>1        0.0639
     27 H9          7.5762    9.6945   19.2998 H       1  <0>1        0.0637
     28 H10         8.6672   13.6144   20.6159 H       1  <0>1        0.0637
     29 H11         9.2268   14.2351   18.3015 H       1  <0>1        0.0639
     30 H12         7.8721   11.9100   22.1333 H       1  <0>1        0.1423
     31 H13         7.4435   10.3700   21.6163 H       1  <0>1        0.1423
@<TRIPOS>BOND
     1     1     2    1
     2     1    19    1
     3     1    20    1
     4     1    21    1
     5     2     3    1
     6     3     8   ar
     7     3     4   ar
     8     4     5   ar
     9     4    22    1
    10     5     6   ar
    11     5    23    1
    12     6    11   ar
    13     6     7   ar
    14     7     8   ar
    15     7     9   ar
    16     8    24    1
    17     9    10   ar
    18    10    11   ar
    19    10    25    1
    20    11    12    1
    21    12    17   ar
    22    12    13   ar
    23    13    14   ar
    24    13    26    1
    25    14    15   ar
    26    14    27    1
    27    15    16   ar
    28    15    18    1
    29    16    17   ar
    30    16    28    1
    31    17    29    1
    32    18    30    1
    33    18    31    1
@<TRIPOS>MOLECULE
ZINC03815794
 32 34 0 0 0
SMALL
USER_CHARGES

@<TRIPOS>ATOM
      1 C1         12.7293    9.3403   12.2699 C.3     1  <0>1        0.0788
      2 O1         12.0296   10.5728   12.0869 O.3     1  <0>1       -0.4950
      3 C2         11.3069   11.0349   13.1419 C.ar    1  <0>1        0.1222
      4 C3         11.2756   10.3095   14.3299 C.ar    1  <0>1       -0.0179
      5 C4         10.5466   10.7657   15.4065 C.ar    1  <0>1       -0.0323
      6 C5          9.8391   11.9557   15.3089 C.ar    1  <0>1        0.0714
      7 C6          9.8658   12.6935   14.1135 C.ar    1  <0>1        0.0679
      8 C7         10.6085   12.2202   13.0284 C.ar    1  <0>1        0.0054
      9 C8          8.6076   13.7799   15.5161 C.ar    1  <0>1        0.0780
     10 N1          9.0337   12.6692   16.1791 N.ar    1  <0>1       -0.3001
     11 C9          8.7156   12.3147   17.4989 C.ar    1  <0>1        0.0481
     12 C10         8.2459   11.0390   17.7807 C.ar    1  <0>1       -0.0361
     13 C11         7.9374   10.6883   19.0799 C.ar    1  <0>1       -0.0391
     14 C12         8.0865   11.6154   20.1034 C.ar    1  <0>1        0.0247
     15 C13         8.5515   12.8932   19.8203 C.ar    1  <0>1       -0.0391
     16 C14         8.8652   13.2415   18.5217 C.ar    1  <0>1       -0.0361
     17 N2          7.7682   11.2624   21.4186 N.pl3   1  <0>1       -0.3580
     18 H1         12.0170    8.5497   12.5058 H       1  <0>1        0.0660
     19 H2         13.2638    9.0866   11.3546 H       1  <0>1        0.0660
     20 H3         13.4407    9.4446   13.0891 H       1  <0>1        0.0660
     21 H4         11.8254    9.3832   14.4077 H       1  <0>1        0.0655
     22 H5         10.5264   10.1985   16.3253 H       1  <0>1        0.0640
     23 H6         10.6362   12.7796   12.1050 H       1  <0>1        0.0675
     24 H7          7.9573   14.5363   15.9299 H       1  <0>1        0.1012
     25 H8          8.1257   10.3196   16.9842 H       1  <0>1        0.0639
     26 H9          7.5762    9.6945   19.2998 H       1  <0>1        0.0637
     27 H10         8.6672   13.6144   20.6159 H       1  <0>1        0.0637
     28 H11         9.2268   14.2351   18.3015 H       1  <0>1        0.0639
     29 H12         7.8721   11.9100   22.1333 H       1  <0>1        0.1423
     30 H13         7.4435   10.3700   21.6163 H       1  <0>1        0.1423
     31 N3          9.0939   13.7948   14.3079 N.ar    1  <0>1       -0.3454
     32 H14         8.9205   14.5269   13.6092 H       1  <0>1        0.1668
@<TRIPOS>BOND
     1     1     2    1
     2     1    18    1
     3     1    19    1
     4     1    20    1
     5     2     3    1
     6     3     8   ar
     7     3     4   ar
     8     4     5   ar
     9     4    21    1
    10     5     6   ar
    11     5    22    1
    12     6    10   ar
    13     6     7   ar
    14     7     8   ar
    15     7    31   ar
    16     8    23    1
    17     9    10   ar
    18     9    24    1
    19     9    31   ar
    20    10    11    1
    21    11    16   ar
    22    11    12   ar
    23    12    13   ar
    24    12    25    1
    25    13    14   ar
    26    13    26    1
    27    14    15   ar
    28    14    17    1
    29    15    16   ar
    30    15    27    1
    31    16    28    1
    32    17    29    1
    33    17    30    1
    34    31    32    1
@<TRIPOS>MOLECULE
ZINC03815796
 33 35 0 0 0
SMALL
USER_CHARGES

@<TRIPOS>ATOM
      1 C1         14.1641   15.8436   19.9058 C.2     1  <0>1       -0.0995
      2 C2         14.3042   15.5202   18.6441 C.2     1  <0>1       -0.0542
      3 C3         14.0815   14.0969   18.2018 C.3     1  <0>1        0.1076
      4 O1         13.2891   14.0860   17.0127 O.3     1  <0>1       -0.4879
      5 C4         12.9945   12.8709   16.4784 C.ar    1  <0>1        0.1231
      6 C5         13.4626   11.7128   17.0932 C.ar    1  <0>1       -0.0178
      7 C6         13.1714   10.4750   16.5623 C.ar    1  <0>1       -0.0323
      8 C7         12.4069   10.3796   15.4080 C.ar    1  <0>1        0.0735
      9 C8         11.9304   11.5435   14.7819 C.ar    1  <0>1        0.0928
     10 C9         12.2325   12.7931   15.3299 C.ar    1  <0>1        0.0075
     11 N1         11.2238   11.1471   13.6920 N.ar    1  <0>1       -0.2353
     12 C10        11.2348    9.8485   13.6099 C.ar    1  <0>1        0.1015
     13 N2         11.9501    9.3208   14.6423 N.ar    1  <0>1       -0.2985
     14 C11        12.1760    7.9598   14.8869 C.ar    1  <0>1        0.0481
     15 C12        13.4652    7.4994   15.1193 C.ar    1  <0>1       -0.0378
     16 C13        13.6838    6.1583   15.3667 C.ar    1  <0>1       -0.0598
     17 C14        12.6221    5.2723   15.3704 C.ar    1  <0>1       -0.0616
     18 C15        11.3378    5.7269   15.1333 C.ar    1  <0>1       -0.0598
     19 C16        11.1119    7.0679   14.8918 C.ar    1  <0>1       -0.0378
     20 H1         14.3237   16.8636   20.2227 H       1  <0>1        0.0533
     21 H2         13.8890   15.0902   20.6290 H       1  <0>1        0.0533
     22 H3         14.5794   16.2736   17.9209 H       1  <0>1        0.0600
     23 H4         13.5634   13.5488   18.9888 H       1  <0>1        0.0742
     24 H5         15.0430   13.6237   18.0021 H       1  <0>1        0.0742
     25 H6         14.0579   11.7851   17.9914 H       1  <0>1        0.0655
     26 H7         13.5377    9.5803   17.0438 H       1  <0>1        0.0640
     27 H8         11.8710   13.6943   14.8570 H       1  <0>1        0.0676
     28 H9         10.7479    9.2731   12.8365 H       1  <0>1        0.1032
     29 H10        14.2954    8.1901   15.1113 H       1  <0>1        0.0638
     30 H11        14.6857    5.8004   15.5527 H       1  <0>1        0.0618
     31 H12        12.7962    4.2234   15.5594 H       1  <0>1        0.0618
     32 H13        10.5105    5.0326   15.1372 H       1  <0>1        0.0618
     33 H14        10.1085    7.4223   14.7073 H       1  <0>1        0.0638
@<TRIPOS>BOND
     1     1     2    2
     2     1    20    1
     3     1    21    1
     4     2     3    1
     5     2    22    1
     6     3     4    1
     7     3    23    1
     8     3    24    1
     9     4     5    1
    10     5    10   ar
    11     5     6   ar
    12     6     7   ar
    13     6    25    1
    14     7     8   ar
    15     7    26    1
    16     8    13   ar
    17     8     9   ar
    18     9    10   ar
    19     9    11   ar
    20    10    27    1
    21    11    12   ar
    22    12    13   ar
    23    12    28    1
    24    13    14    1
    25    14    19   ar
    26    14    15   ar
    27    15    16   ar
    28    15    29    1
    29    16    17   ar
    30    16    30    1
    31    17    18   ar
    32    17    31    1
    33    18    19   ar
    34    18    32    1
    35    19    33    1
@<TRIPOS>MOLECULE
ZINC03815796
 34 36 0 0 0
SMALL
USER_CHARGES

@<TRIPOS>ATOM
      1 C1         14.1641   15.8436   19.9058 C.2     1  <0>1       -0.0995
      2 C2         14.3042   15.5202   18.6441 C.2     1  <0>1       -0.0542
      3 C3         14.0815   14.0969   18.2018 C.3     1  <0>1        0.1076
      4 O1         13.2891   14.0860   17.0127 O.3     1  <0>1       -0.4879
      5 C4         12.9945   12.8709   16.4784 C.ar    1  <0>1        0.1230
      6 C5         13.4626   11.7128   17.0932 C.ar    1  <0>1       -0.0178
      7 C6         13.1714   10.4750   16.5623 C.ar    1  <0>1       -0.0323
      8 C7         12.4069   10.3796   15.4080 C.ar    1  <0>1        0.0714
      9 C8         11.9304   11.5435   14.7819 C.ar    1  <0>1        0.0679
     10 C9         12.2325   12.7931   15.3299 C.ar    1  <0>1        0.0055
     11 C10        11.2348    9.8485   13.6099 C.ar    1  <0>1        0.0780
     12 N1         11.9501    9.3208   14.6423 N.ar    1  <0>1       -0.3001
     13 C11        12.1760    7.9598   14.8869 C.ar    1  <0>1        0.0480
     14 C12        13.4652    7.4994   15.1193 C.ar    1  <0>1       -0.0378
     15 C13        13.6838    6.1583   15.3667 C.ar    1  <0>1       -0.0598
     16 C14        12.6221    5.2723   15.3704 C.ar    1  <0>1       -0.0616
     17 C15        11.3378    5.7269   15.1333 C.ar    1  <0>1       -0.0598
     18 C16        11.1119    7.0679   14.8918 C.ar    1  <0>1       -0.0378
     19 H1         14.3237   16.8636   20.2227 H       1  <0>1        0.0533
     20 H2         13.8890   15.0902   20.6290 H       1  <0>1        0.0533
     21 H3         14.5794   16.2736   17.9209 H       1  <0>1        0.0600
     22 H4         13.5634   13.5488   18.9888 H       1  <0>1        0.0742
     23 H5         15.0430   13.6237   18.0021 H       1  <0>1        0.0742
     24 H6         14.0579   11.7851   17.9914 H       1  <0>1        0.0655
     25 H7         13.5377    9.5803   17.0438 H       1  <0>1        0.0640
     26 H8         11.8710   13.6943   14.8570 H       1  <0>1        0.0675
     27 H9         10.7479    9.2731   12.8365 H       1  <0>1        0.1012
     28 H10        14.2954    8.1901   15.1113 H       1  <0>1        0.0638
     29 H11        14.6857    5.8004   15.5527 H       1  <0>1        0.0618
     30 H12        12.7962    4.2234   15.5594 H       1  <0>1        0.0618
     31 H13        10.5105    5.0326   15.1372 H       1  <0>1        0.0618
     32 H14        10.1085    7.4223   14.7073 H       1  <0>1        0.0638
     33 N2         11.2230   11.1480   13.6909 N.ar    1  <0>1       -0.3454
     34 H15        10.7512   11.7778   13.0314 H       1  <0>1        0.1668
@<TRIPOS>BOND
     1     1     2    2
     2     1    19    1
     3     1    20    1
     4     2     3    1
     5     2    21    1
     6     3     4    1
     7     3    22    1
     8     3    23    1
     9     4     5    1
    10     5    10   ar
    11     5     6   ar
    12     6     7   ar
    13     6    24    1
    14     7     8   ar
    15     7    25    1
    16     8    12   ar
    17     8     9   ar
    18     9    10   ar
    19     9    33   ar
    20    10    26    1
    21    11    12   ar
    22    11    27    1
    23    11    33   ar
    24    12    13    1
    25    13    18   ar
    26    13    14   ar
    27    14    15   ar
    28    14    28    1
    29    15    16   ar
    30    15    29    1
    31    16    17   ar
    32    16    30    1
    33    17    18   ar
    34    17    31    1
    35    18    32    1
    36    33    34    1
@<TRIPOS>MOLECULE
ZINC03815797
 26 28 0 0 0
SMALL
USER_CHARGES

@<TRIPOS>ATOM
      1 C1         12.7533    9.3553   12.2805 C.3     1  <0>1        0.0788
      2 O1         12.0474   10.5838   12.0947 O.3     1  <0>1       -0.4950
      3 C2         11.3197   11.0430   13.1476 C.ar    1  <0>1        0.1222
      4 C3         11.2899   10.3187   14.3363 C.ar    1  <0>1       -0.0179
      5 C4         10.5575   10.7727   15.4115 C.ar    1  <0>1       -0.0323
      6 C5          9.8437   11.9589   15.3111 C.ar    1  <0>1        0.0736
      7 C6          9.8657   12.6937   14.1136 C.ar    1  <0>1        0.0928
      8 C7         10.6085   12.2201   13.0285 C.ar    1  <0>1        0.0075
      9 N1          9.0942   13.7936   14.3092 N.ar    1  <0>1       -0.2353
     10 C8          8.6078   13.7791   15.5169 C.ar    1  <0>1        0.1016
     11 N2          9.0338   12.6692   16.1789 N.ar    1  <0>1       -0.2980
     12 C9          8.7144   12.3130   17.5031 C.ar    1  <0>1        0.0550
     13 C10         8.8586   13.2281   18.5340 C.ar    1  <0>1       -0.0308
     14 C11         8.5421   12.8506   19.7964 C.ar    1  <0>1       -0.0223
     15 S1          8.0278   11.1575   19.5611 S.2     1  <0>1       -0.1030
     16 C12         8.2593   11.0650   17.7934 C.ar    1  <0>1       -0.0004
     17 H1         12.0447    8.5610   12.5154 H       1  <0>1        0.0660
     18 H2         13.2913    9.1036   11.3666 H       1  <0>1        0.0660
     19 H3         13.4622    9.4642   13.1013 H       1  <0>1        0.0660
     20 H4         11.8446    9.3955   14.4163 H       1  <0>1        0.0655
     21 H5         10.5391   10.2065   16.3310 H       1  <0>1        0.0640
     22 H6         10.6358   12.7790   12.1047 H       1  <0>1        0.0676
     23 H7          7.9611   14.5375   15.9325 H       1  <0>1        0.1032
     24 H8          9.2182   14.2267   18.3344 H       1  <0>1        0.0643
     25 H9          8.5926   13.4246   20.7099 H       1  <0>1        0.0694
     26 H10         8.0862   10.2326   17.1276 H       1  <0>1        0.0714
@<TRIPOS>BOND
     1     1     2    1
     2     1    17    1
     3     1    18    1
     4     1    19    1
     5     2     3    1
     6     3     8   ar
     7     3     4   ar
     8     4     5   ar
     9     4    20    1
    10     5     6   ar
    11     5    21    1
    12     6    11   ar
    13     6     7   ar
    14     7     8   ar
    15     7     9   ar
    16     8    22    1
    17     9    10   ar
    18    10    11   ar
    19    10    23    1
    20    11    12    1
    21    12    16   ar
    22    12    13   ar
    23    13    14   ar
    24    13    24    1
    25    14    15   ar
    26    14    25    1
    27    15    16   ar
    28    16    26    1
@<TRIPOS>MOLECULE
ZINC03815797
 27 29 0 0 0
SMALL
USER_CHARGES

@<TRIPOS>ATOM
      1 C1         14.4508   13.7094   18.3054 C.3     1  <0>1        0.0788
      2 O1         13.6767   13.7785   17.1063 O.3     1  <0>1       -0.4950
      3 C2         13.2862   12.5986   16.5547 C.ar    1  <0>1        0.1222
      4 C3         13.6454   11.3984   17.1624 C.ar    1  <0>1       -0.0179
      5 C4         13.2557   10.1956   16.6150 C.ar    1  <0>1       -0.0323
      6 C5         12.5009   10.1775   15.4502 C.ar    1  <0>1        0.0714
      7 C6         12.1377   11.3844   14.8288 C.ar    1  <0>1        0.0679
      8 C7         12.5432   12.5979   15.3913 C.ar    1  <0>1        0.0054
      9 C8         11.3073    9.7661   13.6366 C.ar    1  <0>1        0.0780
     10 N1         11.9651    9.1702   14.6681 N.ar    1  <0>1       -0.2996
     11 C9         12.0747    7.7857   14.8996 C.ar    1  <0>1        0.0550
     12 C10        10.9490    6.9771   14.8868 C.ar    1  <0>1       -0.0308
     13 C11        11.0918    5.6489   15.1140 C.ar    1  <0>1       -0.0223
     14 S1         12.8531    5.5009   15.3639 S.2     1  <0>1       -0.1030
     15 C12        13.2866    7.2181   15.1402 C.ar    1  <0>1       -0.0004
     16 H1         15.3708   13.1575   18.1127 H       1  <0>1        0.0660
     17 H2         14.6952   14.7180   18.6388 H       1  <0>1        0.0660
     18 H3         13.8768   13.2000   19.0795 H       1  <0>1        0.0660
     19 H4         14.2326   11.4104   18.0687 H       1  <0>1        0.0655
     20 H5         13.5369    9.2682   17.0916 H       1  <0>1        0.0640
     21 H6         12.2661   13.5315   14.9244 H       1  <0>1        0.0675
     22 H7         10.7785    9.2418   12.8545 H       1  <0>1        0.1012
     23 H8          9.9728    7.3993   14.6989 H       1  <0>1        0.0643
     24 H9         10.3347    4.8792   15.1416 H       1  <0>1        0.0694
     25 H10        14.2590    7.6857   15.1872 H       1  <0>1        0.0714
     26 N2         11.4076   11.0617   13.7295 N.ar    1  <0>1       -0.3454
     27 H11        10.9975   11.7358   13.0726 H       1  <0>1        0.1668
@<TRIPOS>BOND
     1     1     2    1
     2     1    16    1
     3     1    17    1
     4     1    18    1
     5     2     3    1
     6     3     8   ar
     7     3     4   ar
     8     4     5   ar
     9     4    19    1
    10     5     6   ar
    11     5    20    1
    12     6    10   ar
    13     6     7   ar
    14     7     8   ar
    15     7    26   ar
    16     8    21    1
    17     9    10   ar
    18     9    22    1
    19     9    26   ar
    20    10    11    1
    21    11    15   ar
    22    11    12   ar
    23    12    13   ar
    24    12    23    1
    25    13    14   ar
    26    13    24    1
    27    14    15   ar
    28    15    25    1
    29    26    27    1
@<TRIPOS>MOLECULE
ZINC03815798
 29 31 0 0 0
SMALL
USER_CHARGES

@<TRIPOS>ATOM
      1 C1         11.7545    8.1231   14.7639 C.3     1  <0>1       -0.0135
      2 S1         11.7877    9.3708   13.4474 S.3     1  <0>1       -0.1285
      3 C2         10.8299   10.7000   14.0959 C.ar    1  <0>1        0.0098
      4 C3         10.2660   10.5931   15.3667 C.ar    1  <0>1       -0.0462
      5 C4          9.5153   11.6252   15.8847 C.ar    1  <0>1       -0.0347
      6 C5          9.3174   12.7796   15.1399 C.ar    1  <0>1        0.0734
      7 C6          9.8813   12.8962   13.8584 C.ar    1  <0>1        0.0904
      8 C7         10.6412   11.8436   13.3417 C.ar    1  <0>1       -0.0208
      9 N1          9.5246   14.1151   13.3770 N.ar    1  <0>1       -0.2353
     10 C8          8.7968   14.7391   14.2568 C.ar    1  <0>1        0.1015
     11 N2          8.6355   13.9636   15.3651 N.ar    1  <0>1       -0.2985
     12 C9          7.9184   14.3030   16.5200 C.ar    1  <0>1        0.0481
     13 C10         6.9743   13.4251   17.0359 C.ar    1  <0>1       -0.0378
     14 C11         6.2729   13.7603   18.1774 C.ar    1  <0>1       -0.0598
     15 C12         6.5020   14.9736   18.8002 C.ar    1  <0>1       -0.0616
     16 C13         7.4374   15.8523   18.2855 C.ar    1  <0>1       -0.0598
     17 C14         8.1462   15.5204   17.1476 C.ar    1  <0>1       -0.0378
     18 H1         12.1921    8.5402   15.6708 H       1  <0>1        0.0344
     19 H2         10.7235    7.8290   14.9598 H       1  <0>1        0.0344
     20 H3         12.3283    7.2504   14.4518 H       1  <0>1        0.0344
     21 H4         10.4183    9.6956   15.9478 H       1  <0>1        0.0629
     22 H5          9.0808   11.5362   16.8694 H       1  <0>1        0.0639
     23 H6         11.0795   11.9229   12.3579 H       1  <0>1        0.0650
     24 H7          8.3814   15.7276   14.1275 H       1  <0>1        0.1032
     25 H8          6.7918   12.4794   16.5473 H       1  <0>1        0.0638
     26 H9          5.5417   13.0761   18.5817 H       1  <0>1        0.0618
     27 H10         5.9496   15.2350   19.6906 H       1  <0>1        0.0618
     28 H11         7.6142   16.7991   18.7742 H       1  <0>1        0.0618
     29 H12         8.8771   16.2069   16.7465 H       1  <0>1        0.0638
@<TRIPOS>BOND
     1     1     2    1
     2     1    18    1
     3     1    19    1
     4     1    20    1
     5     2     3    1
     6     3     8   ar
     7     3     4   ar
     8     4     5   ar
     9     4    21    1
    10     5     6   ar
    11     5    22    1
    12     6    11   ar
    13     6     7   ar
    14     7     8   ar
    15     7     9   ar
    16     8    23    1
    17     9    10   ar
    18    10    11   ar
    19    10    24    1
    20    11    12    1
    21    12    17   ar
    22    12    13   ar
    23    13    14   ar
    24    13    25    1
    25    14    15   ar
    26    14    26    1
    27    15    16   ar
    28    15    27    1
    29    16    17   ar
    30    16    28    1
    31    17    29    1
@<TRIPOS>MOLECULE
ZINC03815798
 30 32 0 0 0
SMALL
USER_CHARGES

@<TRIPOS>ATOM
      1 C1         13.0360    8.9441   12.4668 C.3     1  <0>1       -0.0135
      2 S1         12.2748   10.4615   11.8274 S.3     1  <0>1       -0.1285
      3 C2         11.3224   11.0639   13.1819 C.ar    1  <0>1        0.0097
      4 C3         11.3074   10.3611   14.3861 C.ar    1  <0>1       -0.0462
      5 C4         10.5668   10.8217   15.4523 C.ar    1  <0>1       -0.0348
      6 C5          9.8305   11.9919   15.3302 C.ar    1  <0>1        0.0713
      7 C6          9.8392   12.7066   14.1207 C.ar    1  <0>1        0.0655
      8 C7         10.5935   12.2311   13.0450 C.ar    1  <0>1       -0.0229
      9 C8          8.5541   13.7897   15.5015 C.ar    1  <0>1        0.0780
     10 N1          9.0070   12.7030   16.1868 N.ar    1  <0>1       -0.3001
     11 C9          8.7013   12.3700   17.5130 C.ar    1  <0>1        0.0480
     12 C10         8.2609   11.0907   17.8253 C.ar    1  <0>1       -0.0378
     13 C11         7.9655   10.7641   19.1344 C.ar    1  <0>1       -0.0598
     14 C12         8.0972   11.7127   20.1318 C.ar    1  <0>1       -0.0616
     15 C13         8.5301   12.9892   19.8231 C.ar    1  <0>1       -0.0598
     16 C14         8.8327   13.3202   18.5168 C.ar    1  <0>1       -0.0378
     17 H1         13.6563    9.1846   13.3301 H       1  <0>1        0.0344
     18 H2         12.2556    8.2435   12.7639 H       1  <0>1        0.0344
     19 H3         13.6534    8.4924   11.6903 H       1  <0>1        0.0344
     20 H4         11.8792    9.4501   14.4831 H       1  <0>1        0.0629
     21 H5         10.5589   10.2726   16.3822 H       1  <0>1        0.0639
     22 H6         10.6077   12.7728   12.1108 H       1  <0>1        0.0650
     23 H7          7.8888   14.5404   15.9015 H       1  <0>1        0.1012
     24 H8          8.1535   10.3508   17.0460 H       1  <0>1        0.0638
     25 H9          7.6271    9.7679   19.3786 H       1  <0>1        0.0618
     26 H10         7.8620   11.4559   21.1541 H       1  <0>1        0.0618
     27 H11         8.6321   13.7278   20.6043 H       1  <0>1        0.0618
     28 H12         9.1713   14.3172   18.2764 H       1  <0>1        0.0638
     29 N2          9.0402   13.7925   14.2935 N.ar    1  <0>1       -0.3455
     30 H13         8.8492   14.5060   13.5804 H       1  <0>1        0.1668
@<TRIPOS>BOND
     1     1     2    1
     2     1    17    1
     3     1    18    1
     4     1    19    1
     5     2     3    1
     6     3     8   ar
     7     3     4   ar
     8     4     5   ar
     9     4    20    1
    10     5     6   ar
    11     5    21    1
    12     6    10   ar
    13     6     7   ar
    14     7     8   ar
    15     7    29   ar
    16     8    22    1
    17     9    10   ar
    18     9    23    1
    19     9    29   ar
    20    10    11    1
    21    11    16   ar
    22    11    12   ar
    23    12    13   ar
    24    12    24    1
    25    13    14   ar
    26    13    25    1
    27    14    15   ar
    28    14    26    1
    29    15    16   ar
    30    15    27    1
    31    16    28    1
    32    29    30    1
@<TRIPOS>MOLECULE
ZINC03815799
 31 33 0 0 0
SMALL
USER_CHARGES

@<TRIPOS>ATOM
      1 C1         16.5334    3.6975   16.4841 C.3     1  <0>1        0.0820
      2 O1         15.5630    4.7396   16.2002 O.3     1  <0>1       -0.4644
      3 C2         14.3011    4.3458   15.9396 C.2     1  <0>1        0.3390
      4 O2         14.0193    3.1640   15.9492 O.2     1  <0>1       -0.2450
      5 C3         13.2615    5.3498   15.6425 C.ar    1  <0>1        0.0611
      6 C4         13.5888    6.7128   15.6314 C.ar    1  <0>1       -0.0457
      7 C5         12.6363    7.6504   15.3576 C.ar    1  <0>1       -0.0349
      8 C6         11.3309    7.2598   15.0807 C.ar    1  <0>1        0.0734
      9 C7         10.9831    5.8963   15.0934 C.ar    1  <0>1        0.0901
     10 C8         11.9584    4.9408   15.3735 C.ar    1  <0>1       -0.0203
     11 N1          9.6588    5.8219   14.7980 N.ar    1  <0>1       -0.2354
     12 C9          9.1842    7.0191   14.6156 C.ar    1  <0>1        0.1015
     13 N2         10.1713    7.9446   14.7813 N.ar    1  <0>1       -0.2985
     14 C10        10.0347    9.3342   14.6635 C.ar    1  <0>1        0.0481
     15 C11        10.5131   10.1677   15.6657 C.ar    1  <0>1       -0.0378
     16 C12        10.3766   11.5370   15.5468 C.ar    1  <0>1       -0.0598
     17 C13         9.7642   12.0779   14.4312 C.ar    1  <0>1       -0.0616
     18 C14         9.2864   11.2504   13.4318 C.ar    1  <0>1       -0.0598
     19 C15         9.4199    9.8804   13.5448 C.ar    1  <0>1       -0.0378
     20 H1         16.2155    3.1340   17.3612 H       1  <0>1        0.0661
     21 H2         16.6069    3.0265   15.6281 H       1  <0>1        0.0661
     22 H3         17.5066    4.1496   16.6758 H       1  <0>1        0.0661
     23 H4         14.6019    7.0228   15.8413 H       1  <0>1        0.0626
     24 H5         12.8979    8.6982   15.3513 H       1  <0>1        0.0639
     25 H6         11.7052    3.8910   15.3814 H       1  <0>1        0.0647
     26 H7          8.1577    7.2467   14.3687 H       1  <0>1        0.1032
     27 H8         10.9918    9.7457   16.5370 H       1  <0>1        0.0638
     28 H9         10.7525   12.1859   16.3239 H       1  <0>1        0.0618
     29 H10         9.6586   13.1489   14.3406 H       1  <0>1        0.0618
     30 H11         8.8085   11.6758   12.5616 H       1  <0>1        0.0618
     31 H12         9.0468    9.2346   12.7636 H       1  <0>1        0.0638
@<TRIPOS>BOND
     1     1     2    1
     2     1    20    1
     3     1    21    1
     4     1    22    1
     5     2     3    1
     6     3     4    2
     7     3     5    1
     8     5    10   ar
     9     5     6   ar
    10     6     7   ar
    11     6    23    1
    12     7     8   ar
    13     7    24    1
    14     8    13   ar
    15     8     9   ar
    16     9    10   ar
    17     9    11   ar
    18    10    25    1
    19    11    12   ar
    20    12    13   ar
    21    12    26    1
    22    13    14    1
    23    14    19   ar
    24    14    15   ar
    25    15    16   ar
    26    15    27    1
    27    16    17   ar
    28    16    28    1
    29    17    18   ar
    30    17    29    1
    31    18    19   ar
    32    18    30    1
    33    19    31    1
@<TRIPOS>MOLECULE
ZINC03815799
 32 34 0 0 0
SMALL
USER_CHARGES

@<TRIPOS>ATOM
      1 C1         16.5498    3.4099   16.7039 C.3     1  <0>1        0.0820
      2 O1         15.9700    4.6827   16.3138 O.3     1  <0>1       -0.4644
      3 C2         14.6359    4.7157   16.1279 C.2     1  <0>1        0.3390
      4 O2         13.9752    3.7086   16.2873 O.2     1  <0>1       -0.2450
      5 C3         13.9774    5.9749   15.7306 C.ar    1  <0>1        0.0611
      6 C4         14.7415    7.1356   15.5466 C.ar    1  <0>1       -0.0457
      7 C5         14.1440    8.3057   15.1789 C.ar    1  <0>1       -0.0350
      8 C6         12.7691    8.3547   14.9774 C.ar    1  <0>1        0.0712
      9 C7         11.9856    7.2007   15.1633 C.ar    1  <0>1        0.0652
     10 C8         12.5990    6.0068   15.5390 C.ar    1  <0>1       -0.0223
     11 C9         10.6423    8.8094   14.5870 C.ar    1  <0>1        0.0780
     12 N1         11.8905    9.3563   14.6192 N.ar    1  <0>1       -0.3001
     13 C10        12.2211   10.6881   14.3351 C.ar    1  <0>1        0.0480
     14 C11        13.0102   11.4126   15.2184 C.ar    1  <0>1       -0.0378
     15 C12        13.3340   12.7252   14.9358 C.ar    1  <0>1       -0.0598
     16 C13        12.8730   13.3179   13.7746 C.ar    1  <0>1       -0.0616
     17 C14        12.0865   12.5991   12.8933 C.ar    1  <0>1       -0.0598
     18 C15        11.7593   11.2862   13.1702 C.ar    1  <0>1       -0.0378
     19 H1         16.1143    3.0868   17.6493 H       1  <0>1        0.0661
     20 H2         16.3428    2.6654   15.9351 H       1  <0>1        0.0661
     21 H3         17.6279    3.5222   16.8200 H       1  <0>1        0.0661
     22 H4         15.8105    7.1035   15.6974 H       1  <0>1        0.0626
     23 H5         14.7409    9.1949   15.0396 H       1  <0>1        0.0639
     24 H6         12.0093    5.1131   15.6800 H       1  <0>1        0.0647
     25 H7          9.7387    9.3444   14.3342 H       1  <0>1        0.1012
     26 H8         13.3709   10.9501   16.1253 H       1  <0>1        0.0638
     27 H9         13.9514   13.2879   15.6203 H       1  <0>1        0.0618
     28 H10        13.1274   14.3444   13.5559 H       1  <0>1        0.0618
     29 H11        11.7279   13.0648   11.9871 H       1  <0>1        0.0618
     30 H12        11.1453   10.7251   12.4812 H       1  <0>1        0.0638
     31 N2         10.6972    7.5490   14.9051 N.ar    1  <0>1       -0.3455
     32 H13         9.8912    6.9148   14.9537 H       1  <0>1        0.1668
@<TRIPOS>BOND
     1     1     2    1
     2     1    19    1
     3     1    20    1
     4     1    21    1
     5     2     3    1
     6     3     4    2
     7     3     5    1
     8     5    10   ar
     9     5     6   ar
    10     6     7   ar
    11     6    22    1
    12     7     8   ar
    13     7    23    1
    14     8    12   ar
    15     8     9   ar
    16     9    10   ar
    17     9    31   ar
    18    10    24    1
    19    11    12   ar
    20    11    25    1
    21    11    31   ar
    22    12    13    1
    23    13    18   ar
    24    13    14   ar
    25    14    15   ar
    26    14    26    1
    27    15    16   ar
    28    15    27    1
    29    16    17   ar
    30    16    28    1
    31    17    18   ar
    32    17    29    1
    33    18    30    1
    34    31    32    1
@<TRIPOS>MOLECULE
ZINC03815800
 30 32 0 0 0
SMALL
USER_CHARGES

@<TRIPOS>ATOM
      1 C1         13.8838    3.5367   16.5346 C.3     1  <0>1       -0.0014
      2 C2         14.7003    4.7614   16.2118 C.2     1  <0>1        0.1602
      3 O1         15.9096    4.7234   16.2957 O.2     1  <0>1       -0.2924
      4 C3         14.0313    6.0018   15.7954 C.ar    1  <0>1        0.0192
      5 C4         14.7819    7.1734   15.6069 C.ar    1  <0>1       -0.0492
      6 C5         14.1715    8.3299   15.2207 C.ar    1  <0>1       -0.0351
      7 C6         12.7977    8.3567   15.0030 C.ar    1  <0>1        0.0734
      8 C7         12.0279    7.1937   15.1927 C.ar    1  <0>1        0.0900
      9 C8         12.6524    6.0128   15.5878 C.ar    1  <0>1       -0.0238
     10 N1         10.7381    7.5225   14.9170 N.ar    1  <0>1       -0.2354
     11 C9         10.6693    8.7780   14.5853 C.ar    1  <0>1        0.1015
     12 N2         11.9099    9.3421   14.6253 N.ar    1  <0>1       -0.2985
     13 C10        12.2255   10.6752   14.3309 C.ar    1  <0>1        0.0481
     14 C11        12.9963   11.4190   15.2143 C.ar    1  <0>1       -0.0378
     15 C12        13.3065   12.7325   14.9210 C.ar    1  <0>1       -0.0598
     16 C13        12.8497   13.3071   13.7491 C.ar    1  <0>1       -0.0616
     17 C14        12.0814   12.5690   12.8674 C.ar    1  <0>1       -0.0598
     18 C15        11.7683   11.2550   13.1550 C.ar    1  <0>1       -0.0378
     19 H1         12.9205    3.7162   16.3349 H       1  <0>1        0.0309
     20 H2         14.2302    2.6990   15.9293 H       1  <0>1        0.0309
     21 H3         13.9965    3.2927   17.5909 H       1  <0>1        0.0309
     22 H4         15.8495    7.1585   15.7693 H       1  <0>1        0.0625
     23 H5         14.7567    9.2264   15.0789 H       1  <0>1        0.0639
     24 H6         12.0732    5.1127   15.7318 H       1  <0>1        0.0646
     25 H7          9.7615    9.2983   14.3178 H       1  <0>1        0.1032
     26 H8         13.3534   10.9707   16.1298 H       1  <0>1        0.0638
     27 H9         13.9100   13.3101   15.6054 H       1  <0>1        0.0618
     28 H10        13.0931   14.3345   13.5220 H       1  <0>1        0.0618
     29 H11        11.7260   13.0206   11.9529 H       1  <0>1        0.0618
     30 H12        11.1688   10.6788   12.4658 H       1  <0>1        0.0638
@<TRIPOS>BOND
     1     1     2    1
     2     1    19    1
     3     1    20    1
     4     1    21    1
     5     2     3    2
     6     2     4    1
     7     4     9   ar
     8     4     5   ar
     9     5     6   ar
    10     5    22    1
    11     6     7   ar
    12     6    23    1
    13     7    12   ar
    14     7     8   ar
    15     8     9   ar
    16     8    10   ar
    17     9    24    1
    18    10    11   ar
    19    11    12   ar
    20    11    25    1
    21    12    13    1
    22    13    18   ar
    23    13    14   ar
    24    14    15   ar
    25    14    26    1
    26    15    16   ar
    27    15    27    1
    28    16    17   ar
    29    16    28    1
    30    17    18   ar
    31    17    29    1
    32    18    30    1
@<TRIPOS>MOLECULE
ZINC03815800
 31 33 0 0 0
SMALL
USER_CHARGES

@<TRIPOS>ATOM
      1 C1         13.8838    3.5368   16.5346 C.3     1  <0>1       -0.0014
      2 C2         14.7004    4.7614   16.2118 C.2     1  <0>1        0.1602
      3 O1         15.9097    4.7234   16.2957 O.2     1  <0>1       -0.2924
      4 C3         14.0315    6.0019   15.7954 C.ar    1  <0>1        0.0192
      5 C4         14.7821    7.1735   15.6069 C.ar    1  <0>1       -0.0492
      6 C5         14.1718    8.3300   15.2207 C.ar    1  <0>1       -0.0351
      7 C6         12.7980    8.3569   15.0030 C.ar    1  <0>1        0.0712
      8 C7         12.0281    7.1939   15.1927 C.ar    1  <0>1        0.0651
      9 C8         12.6526    6.0130   15.5877 C.ar    1  <0>1       -0.0258
     10 C9         10.6696    8.7783   14.5853 C.ar    1  <0>1        0.0780
     11 N1         11.9103    9.3423   14.6252 N.ar    1  <0>1       -0.3001
     12 C10        12.2259   10.6754   14.3309 C.ar    1  <0>1        0.0480
     13 C11        12.9968   11.4192   15.2143 C.ar    1  <0>1       -0.0378
     14 C12        13.3069   12.7326   14.9210 C.ar    1  <0>1       -0.0598
     15 C13        12.8502   13.3072   13.7491 C.ar    1  <0>1       -0.0616
     16 C14        12.0819   12.5692   12.8674 C.ar    1  <0>1       -0.0598
     17 C15        11.7688   11.2552   13.1550 C.ar    1  <0>1       -0.0378
     18 H1         12.9205    3.7163   16.3349 H       1  <0>1        0.0309
     19 H2         14.2302    2.6991   15.9293 H       1  <0>1        0.0309
     20 H3         13.9965    3.2928   17.5909 H       1  <0>1        0.0309
     21 H4         15.8497    7.1586   15.7694 H       1  <0>1        0.0625
     22 H5         14.7571    9.2265   15.0789 H       1  <0>1        0.0639
     23 H6         12.0733    5.1129   15.7318 H       1  <0>1        0.0646
     24 H7          9.7618    9.2986   14.3177 H       1  <0>1        0.1012
     25 H8         13.3538   10.9709   16.1298 H       1  <0>1        0.0638
     26 H9         13.9106   13.3102   15.6054 H       1  <0>1        0.0618
     27 H10        13.0937   14.3346   13.5220 H       1  <0>1        0.0618
     28 H11        11.7266   13.0208   11.9529 H       1  <0>1        0.0618
     29 H12        11.1692   10.6790   12.4658 H       1  <0>1        0.0638
     30 N2         10.7377    7.5222   14.9170 N.ar    1  <0>1       -0.3455
     31 H13         9.9397    6.8778   14.9636 H       1  <0>1        0.1668
@<TRIPOS>BOND
     1     1     2    1
     2     1    18    1
     3     1    19    1
     4     1    20    1
     5     2     3    2
     6     2     4    1
     7     4     9   ar
     8     4     5   ar
     9     5     6   ar
    10     5    21    1
    11     6     7   ar
    12     6    22    1
    13     7    11   ar
    14     7     8   ar
    15     8     9   ar
    16     8    30   ar
    17     9    23    1
    18    10    11   ar
    19    10    24    1
    20    10    30   ar
    21    11    12    1
    22    12    17   ar
    23    12    13   ar
    24    13    14   ar
    25    13    25    1
    26    14    15   ar
    27    14    26    1
    28    15    16   ar
    29    15    27    1
    30    16    17   ar
    31    16    28    1
    32    17    29    1
    33    30    31    1
@<TRIPOS>MOLECULE
ZINC03827478
 70 74 0 0 0
SMALL
USER_CHARGES

@<TRIPOS>ATOM
      1 C1         10.7626   12.0027   14.9093 C.3     1  <0>1       -0.0380
      2 C2          9.8661   10.9948   14.2370 C.ar    1  <0>1       -0.0291
      3 C3          8.6163   11.3748   13.7868 C.ar    1  <0>1       -0.0553
      4 C4          7.7941   10.4556   13.1645 C.ar    1  <0>1       -0.0401
      5 C5          8.2169    9.1419   13.0006 C.ar    1  <0>1        0.0354
      6 C6          9.4711    8.7570   13.4518 C.ar    1  <0>1       -0.0190
      7 C7         10.2972    9.6845   14.0711 C.ar    1  <0>1        0.0383
      8 N1         11.5617    9.3006   14.5277 N.pl3   1  <0>1       -0.2833
      9 C8         11.8099    7.9755   14.8470 C.ar    1  <0>1        0.2200
     10 N2         10.8057    7.1105   14.8397 N.ar    1  <0>1       -0.2226
     11 C9         11.0021    5.8364   15.1388 C.ar    1  <0>1        0.0332
     12 C10        12.2766    5.4059   15.4633 C.ar    1  <0>1       -0.0174
     13 C11        13.3152    6.3405   15.4625 C.ar    1  <0>1        0.0775
     14 N3         13.0448    7.6049   15.1460 N.ar    1  <0>1       -0.2142
     15 C12        14.6988    5.9288   15.8026 C.ar    1  <0>1        0.0186
     16 C13        15.7386    6.8635   15.8021 C.ar    1  <0>1       -0.0497
     17 C14        17.0119    6.4289   16.1266 C.ar    1  <0>1       -0.0430
     18 C15        17.2132    5.0963   16.4381 C.ar    1  <0>1        0.0276
     19 N4         16.2122    4.2375   16.4303 N.ar    1  <0>1       -0.2626
     20 C16        14.9826    4.6055   16.1336 C.ar    1  <0>1        0.0367
     21 N5          7.3813    8.2105   12.3762 N.am    1  <0>1       -0.2814
     22 C17         6.0432    8.3593   12.4356 C.2     1  <0>1        0.2483
     23 O1          5.5597    9.2477   13.1099 O.2     1  <0>1       -0.2699
     24 C18         5.1632    7.4423   11.6806 C.ar    1  <0>1        0.0370
     25 C19         5.7153    6.4248   10.9006 C.ar    1  <0>1       -0.0492
     26 C20         4.8883    5.5691   10.2027 C.ar    1  <0>1       -0.0528
     27 C21         3.5149    5.7250   10.2656 C.ar    1  <0>1       -0.0029
     28 C22         2.9614    6.7348   11.0327 C.ar    1  <0>1       -0.0528
     29 C23         3.7769    7.5938   11.7400 C.ar    1  <0>1       -0.0492
     30 C24         2.6179    4.7904    9.4956 C.3     1  <0>1       -0.0055
     31 C25         1.5942    6.5841    8.2307 C.3     1  <0>1        0.0098
     32 C26         1.4292    7.1654    6.8246 C.3     1  <0>1        0.0092
     33 C27         1.5380    4.9354    5.8899 C.3     1  <0>1        0.0092
     34 C28         1.7031    4.3540    7.2961 C.3     1  <0>1        0.0098
     35 C29         0.5143    6.7290    4.6251 C.3     1  <0>1       -0.0427
     36 H1         11.3829   12.4941   14.1597 H       1  <0>1        0.0278
     37 H2         10.1526   12.7471   15.4209 H       1  <0>1        0.0278
     38 H3         11.4004   11.4957   15.6332 H       1  <0>1        0.0278
     39 H4          8.2836   12.3940   13.9170 H       1  <0>1        0.0621
     40 H5          6.8198   10.7570   12.8092 H       1  <0>1        0.0636
     41 H6          9.8039    7.7379   13.3213 H       1  <0>1        0.0655
     42 H7         12.2650    9.9620   14.6210 H       1  <0>1        0.1550
     43 H8         10.1764    5.1403   15.1302 H       1  <0>1        0.0831
     44 H9         12.4640    4.3716   15.7117 H       1  <0>1        0.0654
     45 H10        15.5529    7.8982   15.5543 H       1  <0>1        0.0625
     46 H11        17.8394    7.1229   16.1367 H       1  <0>1        0.0633
     47 H12        18.2055    4.7539   16.6921 H       1  <0>1        0.0829
     48 H13        14.1882    3.8738   16.1424 H       1  <0>1        0.0836
     49 H14         7.7648    7.4551   11.9037 H       1  <0>1        0.1551
     50 H15         6.7873    6.3051   10.8470 H       1  <0>1        0.0625
     51 H16         5.3139    4.7784    9.6027 H       1  <0>1        0.0622
     52 H17         1.8886    6.8506   11.0780 H       1  <0>1        0.0622
     53 H18         3.3436    8.3813   12.3386 H       1  <0>1        0.0625
     54 H19         3.0989    3.8164    9.4063 H       1  <0>1        0.0867
     55 H20         1.6698    4.6807   10.0221 H       1  <0>1        0.0867
     56 H21         0.6124    6.3735    8.6548 H       1  <0>1        0.0868
     57 H22         2.1169    7.3026    8.8623 H       1  <0>1        0.0868
     58 H23         2.4098    7.4014    6.4112 H       1  <0>1        0.0868
     59 H24         0.8275    8.0730    6.8742 H       1  <0>1        0.0868
     60 H25         2.5198    5.1460    5.4659 H       1  <0>1        0.0868
     61 H26         1.0158    4.2167    5.2583 H       1  <0>1        0.0868
     62 H27         2.3049    3.4467    7.2461 H       1  <0>1        0.0868
     63 H28         0.7227    4.1177    7.7097 H       1  <0>1        0.0868
     64 H29        -0.0419    6.0039    4.0311 H       1  <0>1        0.0778
     65 H30        -0.0637    7.6492    4.7100 H       1  <0>1        0.0778
     66 H31         1.4669    6.9418    4.1401 H       1  <0>1        0.0778
     67 N6          2.3974    5.3463    8.1434 N.4     1  <0>1        0.2460
     68 H32         3.3068    5.5675    7.7212 H       1  <0>1        0.2041
     69 N7          0.7348    6.1730    5.9772 N.4     1  <0>1        0.2405
     70 H33        -0.1745    5.9516    6.3993 H       1  <0>1        0.2035
@<TRIPOS>BOND
     1     1     2    1
     2     1    36    1
     3     1    37    1
     4     1    38    1
     5     2     7   ar
     6     2     3   ar
     7     3     4   ar
     8     3    39    1
     9     4     5   ar
    10     4    40    1
    11     5     6   ar
    12     5    21    1
    13     6     7   ar
    14     6    41    1
    15     7     8    1
    16     8     9    1
    17     8    42    1
    18     9    14   ar
    19     9    10   ar
    20    10    11   ar
    21    11    12   ar
    22    11    43    1
    23    12    13   ar
    24    12    44    1
    25    13    14   ar
    26    13    15    1
    27    15    20   ar
    28    15    16   ar
    29    16    17   ar
    30    16    45    1
    31    17    18   ar
    32    17    46    1
    33    18    19   ar
    34    18    47    1
    35    19    20   ar
    36    20    48    1
    37    21    22   am
    38    21    49    1
    39    22    23    2
    40    22    24    1
    41    24    29   ar
    42    24    25   ar
    43    25    26   ar
    44    25    50    1
    45    26    27   ar
    46    26    51    1
    47    27    28   ar
    48    27    30    1
    49    28    29   ar
    50    28    52    1
    51    29    53    1
    52    30    54    1
    53    30    55    1
    54    30    67    1
    55    31    32    1
    56    31    56    1
    57    31    57    1
    58    31    67    1
    59    32    58    1
    60    32    59    1
    61    32    69    1
    62    33    34    1
    63    33    60    1
    64    33    61    1
    65    33    69    1
    66    34    62    1
    67    34    63    1
    68    34    67    1
    69    35    64    1
    70    35    65    1
    71    35    66    1
    72    35    69    1
    73    67    68    1
    74    69    70    1
@<TRIPOS>MOLECULE
ZINC03832218
 30 32 0 0 0
SMALL
USER_CHARGES

@<TRIPOS>ATOM
      1 C1         12.7047   10.5893   13.7242 C.3     1  <0>1       -0.0396
      2 C2         11.5959   11.3997   14.3446 C.ar    1  <0>1       -0.0482
      3 C3         10.7192   12.1043   13.5220 C.ar    1  <0>1       -0.0552
      4 C4          9.7116   12.8501   14.0526 C.ar    1  <0>1       -0.0410
      5 C5          9.5457   12.9017   15.4470 C.ar    1  <0>1        0.0039
      6 C6          8.5135   13.6566   16.0309 C.ar    1  <0>1       -0.0431
      7 C7          8.4155   13.6645   17.4143 C.ar    1  <0>1        0.0013
      8 C8          9.3368   12.9289   18.1773 C.ar    1  <0>1        0.0360
      9 N1         10.2912   12.2326   17.6144 N.ar    1  <0>1       -0.2544
     10 C9         10.4363   12.1859   16.2857 C.ar    1  <0>1        0.0715
     11 C10        11.4678   11.4318   15.6992 C.ar    1  <0>1       -0.0328
     12 C11         7.3454   14.4445   18.0830 C.ar    1  <0>1       -0.0094
     13 C12         7.2371   14.4600   19.4704 C.ar    1  <0>1       -0.0470
     14 C13         6.2489   15.1831   20.0434 C.ar    1  <0>1       -0.0237
     15 S1          5.4198   15.8813   18.6254 S.2     1  <0>1       -0.1045
     16 C14         6.4468   15.1692   17.3508 C.ar    1  <0>1       -0.0166
     17 C15         8.7756   13.6113   13.1494 C.3     1  <0>1       -0.0391
     18 H1         13.5925   11.2122   13.6143 H       1  <0>1        0.0278
     19 H2         12.9351    9.7381   14.3651 H       1  <0>1        0.0278
     20 H3         12.3886   10.2312   12.7445 H       1  <0>1        0.0278
     21 H4         10.8435   12.0617   12.4500 H       1  <0>1        0.0623
     22 H5          7.8181   14.2139   15.4207 H       1  <0>1        0.0631
     23 H6          9.2558   12.9381   19.2543 H       1  <0>1        0.0836
     24 H7         12.1565   10.8799   16.3217 H       1  <0>1        0.0642
     25 H8          7.9325   13.9027   20.0806 H       1  <0>1        0.0629
     26 H9          6.0196   15.3068   21.0915 H       1  <0>1        0.0693
     27 H10         6.3758   15.2809   16.2790 H       1  <0>1        0.0699
     28 H11         7.9256   12.9795   12.8917 H       1  <0>1        0.0278
     29 H12         8.4216   14.5050   13.6632 H       1  <0>1        0.0278
     30 H13         9.3028   13.8997   12.2400 H       1  <0>1        0.0278
@<TRIPOS>BOND
     1     1     2    1
     2     1    18    1
     3     1    19    1
     4     1    20    1
     5     2    11   ar
     6     2     3   ar
     7     3     4   ar
     8     3    21    1
     9     4     5   ar
    10     4    17    1
    11     5    10   ar
    12     5     6   ar
    13     6     7   ar
    14     6    22    1
    15     7     8   ar
    16     7    12    1
    17     8     9   ar
    18     8    23    1
    19     9    10   ar
    20    10    11   ar
    21    11    24    1
    22    12    16   ar
    23    12    13   ar
    24    13    14   ar
    25    13    25    1
    26    14    15   ar
    27    14    26    1
    28    15    16   ar
    29    16    27    1
    30    17    28    1
    31    17    29    1
    32    17    30    1
@<TRIPOS>MOLECULE
ZINC03832219
 51 54 0 0 0
SMALL
USER_CHARGES

@<TRIPOS>ATOM
      1 C1         18.6294    5.5294   15.9371 C.3     1  <0>1       -0.0397
      2 C2         17.1470    5.7991   15.9637 C.ar    1  <0>1       -0.0504
      3 C3         16.2735    4.8065   16.3715 C.ar    1  <0>1       -0.0581
      4 C4         14.9154    5.0469   16.3983 C.ar    1  <0>1       -0.0494
      5 C5         14.4229    6.2948   16.0127 C.ar    1  <0>1        0.0370
      6 C6         15.3092    7.2899   15.5972 C.ar    1  <0>1       -0.0494
      7 C7         16.6655    7.0383   15.5806 C.ar    1  <0>1       -0.0581
      8 C8         12.9688    6.5592   16.0383 C.2     1  <0>1        0.2483
      9 O1         12.1994    5.6905   16.4006 O.2     1  <0>1       -0.2699
     10 N1         12.4965    7.7651   15.6654 N.am    1  <0>1       -0.2814
     11 C9         11.1173    7.9815   15.5849 C.ar    1  <0>1        0.0354
     12 C10        10.2608    6.9194   15.3210 C.ar    1  <0>1       -0.0401
     13 C11         8.8977    7.1312   15.2475 C.ar    1  <0>1       -0.0553
     14 C12         8.3823    8.4010   15.4239 C.ar    1  <0>1       -0.0291
     15 C13         9.2335    9.4682   15.6825 C.ar    1  <0>1        0.0383
     16 C14        10.6030    9.2577   15.7630 C.ar    1  <0>1       -0.0190
     17 N2          8.7111   10.7526   15.8617 N.pl3   1  <0>1       -0.2833
     18 C15         9.4146   11.6895   16.6010 C.ar    1  <0>1        0.2200
     19 N3         10.5147   11.3153   17.2384 N.ar    1  <0>1       -0.2226
     20 C16        11.2145   12.1803   17.9550 C.ar    1  <0>1        0.0332
     21 C17        10.7870   13.4940   18.0366 C.ar    1  <0>1       -0.0174
     22 C18         9.6239   13.8591   17.3541 C.ar    1  <0>1        0.0775
     23 N4          8.9738   12.9366   16.6482 N.ar    1  <0>1       -0.2142
     24 C19         9.1248   15.2546   17.4099 C.ar    1  <0>1        0.0186
     25 C20         7.9610   15.6207   16.7270 C.ar    1  <0>1       -0.0497
     26 C21         7.5370   16.9355   16.8108 C.ar    1  <0>1       -0.0430
     27 C22         8.2713   17.8368   17.5603 C.ar    1  <0>1        0.0276
     28 N5          9.3659   17.4620   18.1938 N.ar    1  <0>1       -0.2626
     29 C23         9.8050   16.2208   18.1483 C.ar    1  <0>1        0.0367
     30 C24         6.8950    8.6287   15.3362 C.3     1  <0>1       -0.0380
     31 H1         18.9092    5.1339   14.9606 H       1  <0>1        0.0278
     32 H2         19.1709    6.4570   16.1222 H       1  <0>1        0.0278
     33 H3         18.8803    4.8019   16.7090 H       1  <0>1        0.0278
     34 H4         16.6559    3.8413   16.6693 H       1  <0>1        0.0620
     35 H5         14.2347    4.2713   16.7172 H       1  <0>1        0.0625
     36 H6         14.9342    8.2562   15.2934 H       1  <0>1        0.0625
     37 H7         17.3527    7.8091   15.2640 H       1  <0>1        0.0620
     38 H8         13.1133    8.4830   15.4527 H       1  <0>1        0.1551
     39 H9         10.6609    5.9266   15.1775 H       1  <0>1        0.0636
     40 H10         8.2338    6.3034   15.0467 H       1  <0>1        0.0621
     41 H11        11.2669   10.0856   15.9635 H       1  <0>1        0.0655
     42 H12         7.8562   10.9877   15.4684 H       1  <0>1        0.1550
     43 H13        12.1093   11.8643   18.4706 H       1  <0>1        0.0831
     44 H14        11.3395   14.2198   18.6149 H       1  <0>1        0.0654
     45 H15         7.4071   14.8960   16.1487 H       1  <0>1        0.0625
     46 H16         6.6422   17.2543   16.2968 H       1  <0>1        0.0633
     47 H17         7.9433   18.8635   17.6281 H       1  <0>1        0.0829
     48 H18        10.7030   15.9508   18.6842 H       1  <0>1        0.0836
     49 H19         6.6229    8.8591   14.3062 H       1  <0>1        0.0278
     50 H20         6.3703    7.7292   15.6581 H       1  <0>1        0.0278
     51 H21         6.6165    9.4623   15.9808 H       1  <0>1        0.0278
@<TRIPOS>BOND
     1     1     2    1
     2     1    31    1
     3     1    32    1
     4     1    33    1
     5     2     7   ar
     6     2     3   ar
     7     3     4   ar
     8     3    34    1
     9     4     5   ar
    10     4    35    1
    11     5     6   ar
    12     5     8    1
    13     6     7   ar
    14     6    36    1
    15     7    37    1
    16     8     9    2
    17     8    10   am
    18    10    11    1
    19    10    38    1
    20    11    16   ar
    21    11    12   ar
    22    12    13   ar
    23    12    39    1
    24    13    14   ar
    25    13    40    1
    26    14    15   ar
    27    14    30    1
    28    15    16   ar
    29    15    17    1
    30    16    41    1
    31    17    18    1
    32    17    42    1
    33    18    23   ar
    34    18    19   ar
    35    19    20   ar
    36    20    21   ar
    37    20    43    1
    38    21    22   ar
    39    21    44    1
    40    22    23   ar
    41    22    24    1
    42    24    29   ar
    43    24    25   ar
    44    25    26   ar
    45    25    45    1
    46    26    27   ar
    47    26    46    1
    48    27    28   ar
    49    27    47    1
    50    28    29   ar
    51    29    48    1
    52    30    49    1
    53    30    50    1
    54    30    51    1
@<TRIPOS>MOLECULE
ZINC03832221
 48 51 0 0 0
SMALL
USER_CHARGES

@<TRIPOS>ATOM
      1 C1         10.7586   12.0009   14.9137 C.3     1  <0>1       -0.0380
      2 C2          9.8652   10.9938   14.2364 C.ar    1  <0>1       -0.0291
      3 C3          8.6162   11.3735   13.7835 C.ar    1  <0>1       -0.0553
      4 C4          7.7966   10.4548   13.1571 C.ar    1  <0>1       -0.0401
      5 C5          8.2214    9.1422   12.9906 C.ar    1  <0>1        0.0354
      6 C6          9.4747    8.7575   13.4446 C.ar    1  <0>1       -0.0190
      7 C7         10.2981    9.6843   14.0684 C.ar    1  <0>1        0.0383
      8 N1         11.5616    9.3006   14.5277 N.pl3   1  <0>1       -0.2833
      9 C8         11.8104    7.9750   14.8443 C.ar    1  <0>1        0.2200
     10 N2         10.8072    7.1090   14.8322 N.ar    1  <0>1       -0.2226
     11 C9         11.0040    5.8343   15.1282 C.ar    1  <0>1        0.0332
     12 C10        12.2782    5.4041   15.4548 C.ar    1  <0>1       -0.0174
     13 C11        13.3158    6.3398   15.4593 C.ar    1  <0>1        0.0775
     14 N3         13.0449    7.6049   15.1460 N.ar    1  <0>1       -0.2142
     15 C12        14.6989    5.9287   15.8019 C.ar    1  <0>1        0.0186
     16 C13        15.7377    6.8645   15.8066 C.ar    1  <0>1       -0.0497
     17 C14        17.0106    6.4304   16.1337 C.ar    1  <0>1       -0.0430
     18 C15        17.2123    5.0973   16.4427 C.ar    1  <0>1        0.0276
     19 N4         16.2122    4.2374   16.4303 N.ar    1  <0>1       -0.2626
     20 C16        14.9832    4.6047   16.1300 C.ar    1  <0>1        0.0367
     21 N5          7.3888    8.2115   12.3610 N.am    1  <0>1       -0.2814
     22 C17         6.0503    8.3586   12.4169 C.2     1  <0>1        0.2483
     23 O1          5.5638    9.2445   13.0926 O.2     1  <0>1       -0.2699
     24 C18         5.1741    7.4431   11.6570 C.ar    1  <0>1        0.0371
     25 C19         5.7302    6.4284   10.8756 C.ar    1  <0>1       -0.0482
     26 C20         4.9072    5.5738   10.1728 C.ar    1  <0>1       -0.0427
     27 C21         3.5319    5.7275   10.2322 C.ar    1  <0>1        0.0410
     28 C22         2.9745    6.7358   11.0012 C.ar    1  <0>1       -0.0427
     29 C23         3.7870    7.5930   11.7129 C.ar    1  <0>1       -0.0482
     30 Cl1         2.5024    4.6515    9.3398 Cl      1  <0>1       -0.0835
     31 H1         11.3805   12.4948   14.1673 H       1  <0>1        0.0278
     32 H2         10.1464   12.7435   15.4255 H       1  <0>1        0.0278
     33 H3         11.3949   11.4927   15.6383 H       1  <0>1        0.0278
     34 H4          8.2820   12.3920   13.9153 H       1  <0>1        0.0621
     35 H5          6.8229   10.7561   12.8000 H       1  <0>1        0.0636
     36 H6          9.8089    7.7391   13.3124 H       1  <0>1        0.0655
     37 H7         12.2641    9.9624   14.6247 H       1  <0>1        0.1550
     38 H8         10.1792    5.1372   15.1155 H       1  <0>1        0.0831
     39 H9         12.4660    4.3694   15.7007 H       1  <0>1        0.0654
     40 H10        15.5517    7.8995   15.5609 H       1  <0>1        0.0625
     41 H11        17.8373    7.1252   16.1480 H       1  <0>1        0.0633
     42 H12        18.2043    4.7552   16.6984 H       1  <0>1        0.0829
     43 H13        14.1896    3.8723   16.1347 H       1  <0>1        0.0836
     44 H14         7.7746    7.4580   11.8875 H       1  <0>1        0.1551
     45 H15         6.8025    6.3104   10.8250 H       1  <0>1        0.0625
     46 H16         5.3359    4.7857    9.5716 H       1  <0>1        0.0632
     47 H17         1.9015    6.8507   11.0436 H       1  <0>1        0.0632
     48 H18         3.3513    8.3784   12.3126 H       1  <0>1        0.0625
@<TRIPOS>BOND
     1     1     2    1
     2     1    31    1
     3     1    32    1
     4     1    33    1
     5     2     7   ar
     6     2     3   ar
     7     3     4   ar
     8     3    34    1
     9     4     5   ar
    10     4    35    1
    11     5     6   ar
    12     5    21    1
    13     6     7   ar
    14     6    36    1
    15     7     8    1
    16     8     9    1
    17     8    37    1
    18     9    14   ar
    19     9    10   ar
    20    10    11   ar
    21    11    12   ar
    22    11    38    1
    23    12    13   ar
    24    12    39    1
    25    13    14   ar
    26    13    15    1
    27    15    20   ar
    28    15    16   ar
    29    16    17   ar
    30    16    40    1
    31    17    18   ar
    32    17    41    1
    33    18    19   ar
    34    18    42    1
    35    19    20   ar
    36    20    43    1
    37    21    22   am
    38    21    44    1
    39    22    23    2
    40    22    24    1
    41    24    29   ar
    42    24    25   ar
    43    25    26   ar
    44    25    45    1
    45    26    27   ar
    46    26    46    1
    47    27    28   ar
    48    27    30    1
    49    28    29   ar
    50    28    47    1
    51    29    48    1
@<TRIPOS>MOLECULE
ZINC03832225
 54 58 0 0 0
SMALL
USER_CHARGES

@<TRIPOS>ATOM
      1 C1         10.5816   11.9067   15.1049 C.3     1  <0>1       -0.0380
      2 C2          9.8245   10.9492   14.2212 C.ar    1  <0>1       -0.0291
      3 C3          8.6204   11.3317   13.6615 C.ar    1  <0>1       -0.0553
      4 C4          7.9202   10.4548   12.8559 C.ar    1  <0>1       -0.0401
      5 C5          8.4280    9.1864   12.6011 C.ar    1  <0>1        0.0354
      6 C6          9.6395    8.8014   13.1568 C.ar    1  <0>1       -0.0190
      7 C7         10.3404    9.6847   13.9658 C.ar    1  <0>1        0.0383
      8 N1         11.5616    9.3006   14.5277 N.pl3   1  <0>1       -0.2833
      9 C8         11.8385    7.9586   14.7323 C.ar    1  <0>1        0.2200
     10 N2         10.8869    7.0625   14.5133 N.ar    1  <0>1       -0.2226
     11 C9         11.1119    5.7713   14.6971 C.ar    1  <0>1        0.0332
     12 C10        12.3609    5.3559   15.1243 C.ar    1  <0>1       -0.0174
     13 C11        13.3440    6.3235   15.3468 C.ar    1  <0>1        0.0775
     14 N3         13.0449    7.6050   15.1460 N.ar    1  <0>1       -0.2142
     15 C12        14.6981    5.9293   15.8056 C.ar    1  <0>1        0.0186
     16 C13        15.6824    6.8970   16.0284 C.ar    1  <0>1       -0.0497
     17 C14        16.9299    6.4776   16.4566 C.ar    1  <0>1       -0.0430
     18 C15        17.1609    5.1274   16.6484 C.ar    1  <0>1        0.0276
     19 N4         16.2122    4.2375   16.4303 N.ar    1  <0>1       -0.2626
     20 C16        15.0084    4.5891   16.0271 C.ar    1  <0>1        0.0367
     21 N5          7.7183    8.2992   11.7858 N.am    1  <0>1       -0.2814
     22 C17         6.3762    8.3886   11.7008 C.2     1  <0>1        0.2483
     23 O1          5.7738    9.1765   12.4039 O.2     1  <0>1       -0.2699
     24 C18         5.6372    7.5292   10.7532 C.ar    1  <0>1        0.0376
     25 C19         6.3401    6.6236    9.9381 C.ar    1  <0>1       -0.0490
     26 C20         5.6830    5.8194    9.0642 C.ar    1  <0>1       -0.0533
     27 C21         4.2821    5.8932    8.9562 C.ar    1  <0>1       -0.0178
     28 C22         3.5811    5.0759    8.0540 C.ar    1  <0>1       -0.0540
     29 C23         2.2254    5.1699    7.9712 C.ar    1  <0>1       -0.0612
     30 C24         1.5179    6.0668    8.7694 C.ar    1  <0>1       -0.0612
     31 C25         2.1623    6.8751    9.6545 C.ar    1  <0>1       -0.0540
     32 C26         3.5625    6.8063    9.7681 C.ar    1  <0>1       -0.0172
     33 C27         4.2580    7.6254   10.6702 C.ar    1  <0>1       -0.0419
     34 H1         11.2587   12.5055   14.4957 H       1  <0>1        0.0278
     35 H2          9.8776   12.5626   15.6170 H       1  <0>1        0.0278
     36 H3         11.1562   11.3447   15.8412 H       1  <0>1        0.0278
     37 H4          8.2235   12.3166   13.8583 H       1  <0>1        0.0621
     38 H5          6.9774   10.7553   12.4233 H       1  <0>1        0.0636
     39 H6         10.0360    7.8161   12.9606 H       1  <0>1        0.0655
     40 H7         12.2151    9.9737   14.7745 H       1  <0>1        0.1550
     41 H8         10.3293    5.0496   14.5153 H       1  <0>1        0.0831
     42 H9         12.5710    4.3083   15.2817 H       1  <0>1        0.0654
     43 H10        15.4745    7.9449   15.8702 H       1  <0>1        0.0625
     44 H11        17.7146    7.1970   16.6393 H       1  <0>1        0.0633
     45 H12        18.1333    4.7967   16.9825 H       1  <0>1        0.0829
     46 H13        14.2564    3.8315   15.8631 H       1  <0>1        0.0836
     47 H14         8.1920    7.6194   11.2814 H       1  <0>1        0.1551
     48 H15         7.4159    6.5640   10.0120 H       1  <0>1        0.0625
     49 H16         6.2363    5.1261    8.4479 H       1  <0>1        0.0624
     50 H17         4.1152    4.3757    7.4288 H       1  <0>1        0.0624
     51 H18         1.6902    4.5399    7.2762 H       1  <0>1        0.0618
     52 H19         0.4426    6.1216    8.6839 H       1  <0>1        0.0618
     53 H20         1.6013    7.5661   10.2663 H       1  <0>1        0.0624
     54 H21         3.7224    8.3254   11.2944 H       1  <0>1        0.0631
@<TRIPOS>BOND
     1     1     2    1
     2     1    34    1
     3     1    35    1
     4     1    36    1
     5     2     7   ar
     6     2     3   ar
     7     3     4   ar
     8     3    37    1
     9     4     5   ar
    10     4    38    1
    11     5     6   ar
    12     5    21    1
    13     6     7   ar
    14     6    39    1
    15     7     8    1
    16     8     9    1
    17     8    40    1
    18     9    14   ar
    19     9    10   ar
    20    10    11   ar
    21    11    12   ar
    22    11    41    1
    23    12    13   ar
    24    12    42    1
    25    13    14   ar
    26    13    15    1
    27    15    20   ar
    28    15    16   ar
    29    16    17   ar
    30    16    43    1
    31    17    18   ar
    32    17    44    1
    33    18    19   ar
    34    18    45    1
    35    19    20   ar
    36    20    46    1
    37    21    22   am
    38    21    47    1
    39    22    23    2
    40    22    24    1
    41    24    33   ar
    42    24    25   ar
    43    25    26   ar
    44    25    48    1
    45    26    27   ar
    46    26    49    1
    47    27    32   ar
    48    27    28   ar
    49    28    29   ar
    50    28    50    1
    51    29    30   ar
    52    29    51    1
    53    30    31   ar
    54    30    52    1
    55    31    32   ar
    56    31    53    1
    57    32    33   ar
    58    33    54    1
@<TRIPOS>MOLECULE
ZINC03832227
 54 58 0 0 0
SMALL
USER_CHARGES

@<TRIPOS>ATOM
      1 C1         10.7476   11.9137   15.2988 C.3     1  <0>1       -0.0380
      2 C2          9.8257   10.9784   14.5595 C.ar    1  <0>1       -0.0291
      3 C3          8.5445   11.3837   14.2380 C.ar    1  <0>1       -0.0553
      4 C4          7.6983   10.5318   13.5550 C.ar    1  <0>1       -0.0401
      5 C5          8.1298    9.2595   13.1990 C.ar    1  <0>1        0.0354
      6 C6          9.4156    8.8495   13.5204 C.ar    1  <0>1       -0.0190
      7 C7         10.2652    9.7100   14.2016 C.ar    1  <0>1        0.0383
      8 N1         11.5616    9.3006   14.5277 N.pl3   1  <0>1       -0.2833
      9 C8         11.8116    7.9737   14.8381 C.ar    1  <0>1        0.2200
     10 N2         10.8106    7.1053   14.8138 N.ar    1  <0>1       -0.2226
     11 C9         11.0088    5.8293   15.1035 C.ar    1  <0>1        0.0332
     12 C10        12.2817    5.4005   15.4363 C.ar    1  <0>1       -0.0174
     13 C11        13.3168    6.3387   15.4534 C.ar    1  <0>1        0.0775
     14 N3         13.0449    7.6049   15.1460 N.ar    1  <0>1       -0.2142
     15 C12        14.6987    5.9289   15.8031 C.ar    1  <0>1        0.0186
     16 C13        15.7351    6.8672   15.8207 C.ar    1  <0>1       -0.0497
     17 C14        17.0068    6.4343   16.1533 C.ar    1  <0>1       -0.0430
     18 C15        17.2099    5.0998   16.4551 C.ar    1  <0>1        0.0276
     19 N4         16.2122    4.2374   16.4303 N.ar    1  <0>1       -0.2626
     20 C16        14.9841    4.6037   16.1252 C.ar    1  <0>1        0.0367
     21 N5          7.2706    8.3956   12.5128 N.am    1  <0>1       -0.2814
     22 C17         5.9565    8.3743   12.8116 C.2     1  <0>1        0.2488
     23 O1          5.5032    9.1645   13.6172 O.2     1  <0>1       -0.2698
     24 C18         5.0687    7.3928   12.1619 C.ar    1  <0>1        0.0447
     25 C19         5.5532    6.5632   11.1611 C.ar    1  <0>1       -0.0490
     26 C20         4.7203    5.6405   10.5413 C.ar    1  <0>1       -0.0605
     27 C21         3.4124    5.5154   10.9039 C.ar    1  <0>1       -0.0540
     28 C22         2.8803    6.3308   11.9175 C.ar    1  <0>1       -0.0172
     29 C23         3.7120    7.2816   12.5573 C.ar    1  <0>1       -0.0058
     30 C24         3.1803    8.0934   13.5683 C.ar    1  <0>1       -0.0533
     31 C25         1.8714    7.9595   13.9227 C.ar    1  <0>1       -0.0611
     32 C26         1.0513    7.0249   13.2946 C.ar    1  <0>1       -0.0612
     33 C27         1.5347    6.2197   12.3091 C.ar    1  <0>1       -0.0540
     34 H1         11.3115   12.5101   14.5816 H       1  <0>1        0.0278
     35 H2         10.1603   12.5732   15.9377 H       1  <0>1        0.0278
     36 H3         11.4379   11.3342   15.9118 H       1  <0>1        0.0278
     37 H4          8.2053   12.3703   14.5173 H       1  <0>1        0.0621
     38 H5          6.6989   10.8531   13.3012 H       1  <0>1        0.0636
     39 H6          9.7549    7.8631   13.2407 H       1  <0>1        0.0655
     40 H7         12.2861    9.9456   14.5366 H       1  <0>1        0.1550
     41 H8         10.1858    5.1303   15.0809 H       1  <0>1        0.0831
     42 H9         12.4705    4.3647   15.6773 H       1  <0>1        0.0654
     43 H10        15.5480    7.9034   15.5802 H       1  <0>1        0.0625
     44 H11        17.8317    7.1310   16.1775 H       1  <0>1        0.0633
     45 H12        18.2010    4.7585   16.7156 H       1  <0>1        0.0829
     46 H13        14.1922    3.8692   16.1200 H       1  <0>1        0.0836
     47 H14         7.6204    7.8117   11.8217 H       1  <0>1        0.1551
     48 H15         6.5870    6.6385   10.8579 H       1  <0>1        0.0625
     49 H16         5.1171    5.0079    9.7610 H       1  <0>1        0.0618
     50 H17         2.7839    4.7879   10.4118 H       1  <0>1        0.0624
     51 H18         3.8049    8.8217   14.0641 H       1  <0>1        0.0624
     52 H19         1.4641    8.5867   14.7020 H       1  <0>1        0.0618
     53 H20         0.0174    6.9376   13.5942 H       1  <0>1        0.0618
     54 H21         0.8878    5.4991   11.8308 H       1  <0>1        0.0624
@<TRIPOS>BOND
     1     1     2    1
     2     1    34    1
     3     1    35    1
     4     1    36    1
     5     2     7   ar
     6     2     3   ar
     7     3     4   ar
     8     3    37    1
     9     4     5   ar
    10     4    38    1
    11     5     6   ar
    12     5    21    1
    13     6     7   ar
    14     6    39    1
    15     7     8    1
    16     8     9    1
    17     8    40    1
    18     9    14   ar
    19     9    10   ar
    20    10    11   ar
    21    11    12   ar
    22    11    41    1
    23    12    13   ar
    24    12    42    1
    25    13    14   ar
    26    13    15    1
    27    15    20   ar
    28    15    16   ar
    29    16    17   ar
    30    16    43    1
    31    17    18   ar
    32    17    44    1
    33    18    19   ar
    34    18    45    1
    35    19    20   ar
    36    20    46    1
    37    21    22   am
    38    21    47    1
    39    22    23    2
    40    22    24    1
    41    24    29   ar
    42    24    25   ar
    43    25    26   ar
    44    25    48    1
    45    26    27   ar
    46    26    49    1
    47    27    28   ar
    48    27    50    1
    49    28    33   ar
    50    28    29   ar
    51    29    30   ar
    52    30    31   ar
    53    30    51    1
    54    31    32   ar
    55    31    52    1
    56    32    33   ar
    57    32    53    1
    58    33    54    1
@<TRIPOS>MOLECULE
ZINC03832228
 43 45 0 0 0
SMALL
USER_CHARGES

@<TRIPOS>ATOM
      1 C1          5.2049   15.2161   21.5489 C.3     1  <0>1        0.0788
      2 O1          5.9097   13.9960   21.7871 O.3     1  <0>1       -0.4951
      3 C2          6.6488   13.5001   20.7606 C.ar    1  <0>1        0.1201
      4 C3          7.3582   12.3175   20.9264 C.ar    1  <0>1       -0.0194
      5 C4          8.1095   11.8108   19.8884 C.ar    1  <0>1       -0.0511
      6 C5          8.1570   12.4890   18.6669 C.ar    1  <0>1       -0.0248
      7 C6          7.4460   13.6819   18.5068 C.ar    1  <0>1       -0.0511
      8 C7          6.6928   14.1776   19.5488 C.ar    1  <0>1       -0.0194
      9 C8          8.9588   11.9515   17.5540 C.2     1  <0>1       -0.0540
     10 C9          9.0029   12.6049   16.3811 C.2     1  <0>1       -0.0526
     11 C10         9.8047   12.0674   15.2683 C.ar    1  <0>1       -0.0063
     12 C11         9.8597   12.7431   14.0521 C.ar    1  <0>1       -0.0438
     13 C12        10.6336   12.1845   13.0227 C.ar    1  <0>1        0.0046
     14 C13        10.7296   12.8082   11.7660 C.ar    1  <0>1       -0.0071
     15 C14        11.4897   12.2398   10.7866 C.ar    1  <0>1        0.1622
     16 C15        12.1772   11.0387   11.0204 C.ar    1  <0>1        0.1635
     17 C16        12.1017   10.4114   12.2300 C.ar    1  <0>1        0.0097
     18 C17        11.3275   10.9700   13.2607 C.ar    1  <0>1        0.0747
     19 N1         11.2416   10.3688   14.4530 N.ar    1  <0>1       -0.2543
     20 C18        10.5263   10.8704   15.4271 C.ar    1  <0>1        0.0354
     21 O2         12.9280   10.4925   10.0282 O.3     1  <0>1       -0.4914
     22 C19        13.6042    9.2691   10.3249 C.3     1  <0>1        0.0790
     23 O3         11.5830   12.8429    9.5718 O.3     1  <0>1       -0.4914
     24 C20        10.8601   14.0630    9.3961 C.3     1  <0>1        0.0790
     25 H1          5.9153   16.0021   21.2930 H       1  <0>1        0.0660
     26 H2          4.5051   15.0765   20.7249 H       1  <0>1        0.0660
     27 H3          4.6566   15.5002   22.4470 H       1  <0>1        0.0660
     28 H4          7.3206   11.7941   21.8704 H       1  <0>1        0.0654
     29 H5          8.6611   10.8915   20.0184 H       1  <0>1        0.0625
     30 H6          7.4833   14.2116   17.5664 H       1  <0>1        0.0625
     31 H7          6.1399   15.0970   19.4247 H       1  <0>1        0.0654
     32 H8          9.5111   11.0321   17.6810 H       1  <0>1        0.0624
     33 H9          8.4507   13.5243   16.2541 H       1  <0>1        0.0624
     34 H10         9.3192   13.6662   13.9035 H       1  <0>1        0.0630
     35 H11        10.2042   13.7328   11.5774 H       1  <0>1        0.0662
     36 H12        12.6359    9.4872   12.3946 H       1  <0>1        0.0677
     37 H13        10.4855   10.3511   16.3732 H       1  <0>1        0.0836
     38 H14        14.2890    9.4254   11.1583 H       1  <0>1        0.0660
     39 H15        12.8736    8.5060   10.5933 H       1  <0>1        0.0660
     40 H16        14.1656    8.9427    9.4494 H       1  <0>1        0.0660
     41 H17        11.2118   14.8008   10.1172 H       1  <0>1        0.0660
     42 H18        11.0203   14.4378    8.3852 H       1  <0>1        0.0660
     43 H19         9.7967   13.8809    9.5518 H       1  <0>1        0.0660
@<TRIPOS>BOND
     1     1     2    1
     2     1    25    1
     3     1    26    1
     4     1    27    1
     5     2     3    1
     6     3     8   ar
     7     3     4   ar
     8     4     5   ar
     9     4    28    1
    10     5     6   ar
    11     5    29    1
    12     6     7   ar
    13     6     9    1
    14     7     8   ar
    15     7    30    1
    16     8    31    1
    17     9    10    2
    18     9    32    1
    19    10    11    1
    20    10    33    1
    21    11    20   ar
    22    11    12   ar
    23    12    13   ar
    24    12    34    1
    25    13    18   ar
    26    13    14   ar
    27    14    15   ar
    28    14    35    1
    29    15    16   ar
    30    15    23    1
    31    16    17   ar
    32    16    21    1
    33    17    18   ar
    34    17    36    1
    35    18    19   ar
    36    19    20   ar
    37    20    37    1
    38    21    22    1
    39    22    38    1
    40    22    39    1
    41    22    40    1
    42    23    24    1
    43    24    41    1
    44    24    42    1
    45    24    43    1
@<TRIPOS>MOLECULE
ZINC03832229
 57 60 0 0 0
SMALL
USER_CHARGES

@<TRIPOS>ATOM
      1 C1         12.8080   21.1674   17.0950 C.3     1  <0>1       -0.0244
      2 C2         11.3343   21.1270   16.6858 C.3     1  <0>1       -0.0315
      3 C3         10.4257   20.9047   18.9191 C.3     1  <0>1       -0.0315
      4 C4         10.1208   19.8422   19.9769 C.3     1  <0>1       -0.0244
      5 C5          9.2936   19.8738   17.0434 C.3     1  <0>1        0.1169
      6 O1          8.8653   18.6420   17.6277 O.3     1  <0>1       -0.4543
      7 C6          9.4572   17.5048   17.1741 C.ar    1  <0>1        0.1264
      8 C7          9.1504   16.2838   17.7566 C.ar    1  <0>1       -0.0180
      9 C8          9.7515   15.1287   17.2969 C.ar    1  <0>1       -0.0370
     10 C9         10.6631   15.1895   16.2511 C.ar    1  <0>1        0.0338
     11 C10        10.9692   16.4121   15.6681 C.ar    1  <0>1       -0.0370
     12 C11        10.3676   17.5664   16.1293 C.ar    1  <0>1       -0.0180
     13 N1         11.2725   14.0187   15.7840 N.pl3   1  <0>1       -0.2836
     14 C12        10.5759   12.8252   15.7953 C.ar    1  <0>1        0.2214
     15 N2          9.3101   12.8268   16.1994 N.ar    1  <0>1       -0.2219
     16 C13         8.6009   11.7141   16.2286 C.ar    1  <0>1        0.0418
     17 C14         9.2110   10.5180   15.8220 C.ar    1  <0>1        0.0365
     18 C15         8.5024    9.2939   15.8307 C.ar    1  <0>1       -0.0367
     19 C16         9.1419    8.1544   15.4249 C.ar    1  <0>1        0.0479
     20 C17        10.5392    8.2288   14.9924 C.ar    1  <0>1        0.2603
     21 O2         11.1160    7.2190   14.6299 O.2     1  <0>1       -0.2670
     22 N3         11.1898    9.4082   14.9937 N.ar    1  <0>1       -0.2953
     23 C18        10.5569   10.5563   15.3995 C.ar    1  <0>1        0.1482
     24 N4         11.1924   11.7230   15.3980 N.ar    1  <0>1       -0.1961
     25 C19        12.5873    9.4659   14.5582 C.3     1  <0>1        0.0167
     26 C20         8.4268    6.8557   15.4236 C.ar    1  <0>1       -0.0057
     27 C21         7.9967    6.2783   16.6149 C.ar    1  <0>1       -0.0468
     28 C22         7.3438    5.0952   16.5723 C.ar    1  <0>1       -0.0237
     29 S1          7.3209    4.7378   14.8240 S.2     1  <0>1       -0.1045
     30 C23         8.1795    6.1945   14.2522 C.ar    1  <0>1       -0.0165
     31 H1         12.8909   21.5327   18.1186 H       1  <0>1        0.0281
     32 H2         13.2302   20.1645   17.0318 H       1  <0>1        0.0281
     33 H3         13.3526   21.8338   16.4261 H       1  <0>1        0.0281
     34 H4         11.2492   20.7350   15.6723 H       1  <0>1        0.0813
     35 H5         10.9194   22.1343   16.7217 H       1  <0>1        0.0813
     36 H6         11.3432   21.4295   19.1851 H       1  <0>1        0.0813
     37 H7          9.6013   21.6161   18.8705 H       1  <0>1        0.0813
     38 H8          9.9536   20.3254   20.9396 H       1  <0>1        0.0281
     39 H9          9.2276   19.2882   19.6885 H       1  <0>1        0.0281
     40 H10        10.9641   19.1561   20.0564 H       1  <0>1        0.0281
     41 H11         9.3901   19.7501   15.9647 H       1  <0>1        0.1300
     42 H12         8.5597   20.6512   17.2559 H       1  <0>1        0.1300
     43 H13         8.4418   16.2367   18.5702 H       1  <0>1        0.0655
     44 H14         9.5159   14.1786   17.7535 H       1  <0>1        0.0637
     45 H15        11.6780   16.4604   14.8547 H       1  <0>1        0.0637
     46 H16        10.6059   18.5175   15.6764 H       1  <0>1        0.0655
     47 H17        12.1837   14.0452   15.4524 H       1  <0>1        0.1550
     48 H18         7.5726   11.7241   16.5586 H       1  <0>1        0.0838
     49 H19         7.4724    9.2592   16.1532 H       1  <0>1        0.0633
     50 H20        13.2419    9.3088   15.4155 H       1  <0>1        0.0457
     51 H21        12.7688    8.6891   13.8154 H       1  <0>1        0.0457
     52 H22        12.7912   10.4427   14.1195 H       1  <0>1        0.0457
     53 H23         8.1787    6.7701   17.5591 H       1  <0>1        0.0629
     54 H24         6.9424    4.5128   17.3885 H       1  <0>1        0.0693
     55 H25         8.4365    6.4801   13.2430 H       1  <0>1        0.0699
     56 N5         10.6084   20.2349   17.6142 N.4     1  <0>1        0.2633
     57 H26        11.1583   19.3790   17.7528 H       1  <0>1        0.2070
@<TRIPOS>BOND
     1     1     2    1
     2     1    31    1
     3     1    32    1
     4     1    33    1
     5     2    34    1
     6     2    35    1
     7     2    56    1
     8     3     4    1
     9     3    36    1
    10     3    37    1
    11     3    56    1
    12     4    38    1
    13     4    39    1
    14     4    40    1
    15     5     6    1
    16     5    41    1
    17     5    42    1
    18     5    56    1
    19     6     7    1
    20     7    12   ar
    21     7     8   ar
    22     8     9   ar
    23     8    43    1
    24     9    10   ar
    25     9    44    1
    26    10    11   ar
    27    10    13    1
    28    11    12   ar
    29    11    45    1
    30    12    46    1
    31    13    14    1
    32    13    47    1
    33    14    24   ar
    34    14    15   ar
    35    15    16   ar
    36    16    17   ar
    37    16    48    1
    38    17    23   ar
    39    17    18   ar
    40    18    19   ar
    41    18    49    1
    42    19    20   ar
    43    19    26    1
    44    20    21    2
    45    20    22   ar
    46    22    23   ar
    47    22    25    1
    48    23    24   ar
    49    25    50    1
    50    25    51    1
    51    25    52    1
    52    26    30   ar
    53    26    27   ar
    54    27    28   ar
    55    27    53    1
    56    28    29   ar
    57    28    54    1
    58    29    30   ar
    59    30    55    1
    60    56    57    1
@<TRIPOS>MOLECULE
ZINC03832230
 28 30 0 0 0
SMALL
USER_CHARGES

@<TRIPOS>ATOM
      1 C1         11.5003   12.2265   10.8203 C.3     1  <0>1        0.0788
      2 O1         10.6996   12.8366   11.8345 O.3     1  <0>1       -0.4951
      3 C2         10.6239   12.1949   13.0301 C.ar    1  <0>1        0.1208
      4 C3         11.3155   10.9938   13.2152 C.ar    1  <0>1       -0.0179
      5 C4         11.2597   10.3279   14.3997 C.ar    1  <0>1       -0.0323
      6 C5         10.4974   10.8485   15.4607 C.ar    1  <0>1        0.0712
      7 C6          9.8007   12.0695   15.2749 C.ar    1  <0>1        0.0044
      8 C7          9.8734   12.7306   14.0380 C.ar    1  <0>1       -0.0108
      9 C8          9.0432   12.5937   16.3369 C.ar    1  <0>1       -0.0433
     10 C9          9.0181   11.8863   17.5298 C.ar    1  <0>1        0.0013
     11 C10         9.7395   10.6866   17.6377 C.ar    1  <0>1        0.0360
     12 N1         10.4299   10.2093   16.6333 N.ar    1  <0>1       -0.2544
     13 C11         8.2354   12.3938   18.6832 C.ar    1  <0>1       -0.0094
     14 C12         8.2027   11.6928   19.8850 C.ar    1  <0>1       -0.0470
     15 C13         7.4783   12.1877   20.9137 C.ar    1  <0>1       -0.0237
     16 S1          6.8037   13.6852   20.2158 S.2     1  <0>1       -0.1045
     17 C14         7.5341   13.5639   18.5917 C.ar    1  <0>1       -0.0166
     18 H1         12.5283   12.1401   11.1719 H       1  <0>1        0.0660
     19 H2         11.1083   11.2345   10.5959 H       1  <0>1        0.0660
     20 H3         11.4746   12.8396    9.9194 H       1  <0>1        0.0660
     21 H4         11.9030   10.5883   12.4047 H       1  <0>1        0.0655
     22 H5         11.7996    9.4010   14.5252 H       1  <0>1        0.0640
     23 H6          9.3430   13.6590   13.8859 H       1  <0>1        0.0661
     24 H7          8.4976   13.5192   16.2273 H       1  <0>1        0.0631
     25 H8          9.7166   10.1397   18.5688 H       1  <0>1        0.0836
     26 H9          8.7483   10.7672   19.9944 H       1  <0>1        0.0629
     27 H10         7.3430   11.7809   21.9050 H       1  <0>1        0.0693
     28 H11         7.4446   14.2392   17.7536 H       1  <0>1        0.0699
@<TRIPOS>BOND
     1     1     2    1
     2     1    18    1
     3     1    19    1
     4     1    20    1
     5     2     3    1
     6     3     8   ar
     7     3     4   ar
     8     4     5   ar
     9     4    21    1
    10     5     6   ar
    11     5    22    1
    12     6    12   ar
    13     6     7   ar
    14     7     8   ar
    15     7     9   ar
    16     8    23    1
    17     9    10   ar
    18     9    24    1
    19    10    11   ar
    20    10    13    1
    21    11    12   ar
    22    11    25    1
    23    13    17   ar
    24    13    14   ar
    25    14    15   ar
    26    14    26    1
    27    15    16   ar
    28    15    27    1
    29    16    17   ar
    30    17    28    1
@<TRIPOS>MOLECULE
ZINC03832231
 43 46 0 0 0
SMALL
USER_CHARGES

@<TRIPOS>ATOM
      1 C1         12.1509   10.5117   12.7721 C.3     1  <0>1       -0.0469
      2 C2         11.4219    9.4785   13.6333 C.3     1  <0>1        0.0252
      3 N1         11.9921    9.4778   14.9828 N.ar    1  <0>1       -0.2925
      4 C3         11.4702   10.3095   15.9409 C.ar    1  <0>1        0.1485
      5 C4         12.0044   10.3170   17.2477 C.ar    1  <0>1        0.0365
      6 C5         13.0834    9.4665   17.5800 C.ar    1  <0>1       -0.0367
      7 C6         13.5980    8.6402   16.6171 C.ar    1  <0>1        0.0474
      8 C7         13.0200    8.6566   15.2717 C.ar    1  <0>1        0.2606
      9 O1         13.4715    7.9244   14.4092 O.2     1  <0>1       -0.2670
     10 C8         14.7291    7.7370   16.9338 C.ar    1  <0>1       -0.0127
     11 C9         15.9624    7.9133   16.3072 C.ar    1  <0>1       -0.0539
     12 C10        17.0134    7.0721   16.6103 C.ar    1  <0>1       -0.0612
     13 C11        16.8423    6.0484   17.5250 C.ar    1  <0>1       -0.0617
     14 C12        15.6196    5.8653   18.1457 C.ar    1  <0>1       -0.0612
     15 C13        14.5628    6.7036   17.8553 C.ar    1  <0>1       -0.0539
     16 C14        11.4410   11.1818   18.1980 C.ar    1  <0>1        0.0418
     17 N2         10.4346   11.9533   17.8318 N.ar    1  <0>1       -0.2219
     18 C15         9.9577   11.9195   16.5925 C.ar    1  <0>1        0.2214
     19 N3         10.4561   11.1206   15.6617 N.ar    1  <0>1       -0.1961
     20 N4          8.9023   12.7489   16.2624 N.pl3   1  <0>1       -0.2835
     21 C16         8.2833   13.5149   17.2485 C.ar    1  <0>1        0.0364
     22 C17         8.1683   13.0416   18.5551 C.ar    1  <0>1       -0.0223
     23 C18         7.5524   13.8323   19.5026 C.ar    1  <0>1        0.0293
     24 N5          7.0674   15.0175   19.1831 N.ar    1  <0>1       -0.2631
     25 C19         7.1524   15.4986   17.9570 C.ar    1  <0>1        0.0293
     26 C20         7.7577   14.7722   16.9528 C.ar    1  <0>1       -0.0223
     27 H1         11.7266   10.5122   11.7680 H       1  <0>1        0.0247
     28 H2         12.0357   11.5007   13.2156 H       1  <0>1        0.0247
     29 H3         13.2098   10.2583   12.7189 H       1  <0>1        0.0247
     30 H4         11.5370    8.4894   13.1898 H       1  <0>1        0.0490
     31 H5         10.3630    9.7318   13.6865 H       1  <0>1        0.0490
     32 H6         13.4959    9.4686   18.5781 H       1  <0>1        0.0633
     33 H7         16.0958    8.7091   15.5895 H       1  <0>1        0.0624
     34 H8         17.9704    7.2104   16.1290 H       1  <0>1        0.0618
     35 H9         17.6666    5.3898   17.7555 H       1  <0>1        0.0618
     36 H10        15.4920    5.0644   18.8591 H       1  <0>1        0.0618
     37 H11        13.6088    6.5599   18.3409 H       1  <0>1        0.0624
     38 H12        11.8229   11.2158   19.2076 H       1  <0>1        0.0838
     39 H13         8.5924   12.7977   15.3445 H       1  <0>1        0.1550
     40 H14         8.5589   12.0707   18.8222 H       1  <0>1        0.0651
     41 H15         7.4622   13.4754   20.5179 H       1  <0>1        0.0830
     42 H16         6.7426   16.4733   17.7372 H       1  <0>1        0.0830
     43 H17         7.8232   15.1715   15.9515 H       1  <0>1        0.0651
@<TRIPOS>BOND
     1     1     2    1
     2     1    27    1
     3     1    28    1
     4     1    29    1
     5     2     3    1
     6     2    30    1
     7     2    31    1
     8     3     8   ar
     9     3     4   ar
    10     4    19   ar
    11     4     5   ar
    12     5     6   ar
    13     5    16   ar
    14     6     7   ar
    15     6    32    1
    16     7     8   ar
    17     7    10    1
    18     8     9    2
    19    10    15   ar
    20    10    11   ar
    21    11    12   ar
    22    11    33    1
    23    12    13   ar
    24    12    34    1
    25    13    14   ar
    26    13    35    1
    27    14    15   ar
    28    14    36    1
    29    15    37    1
    30    16    17   ar
    31    16    38    1
    32    17    18   ar
    33    18    19   ar
    34    18    20    1
    35    20    21    1
    36    20    39    1
    37    21    26   ar
    38    21    22   ar
    39    22    23   ar
    40    22    40    1
    41    23    24   ar
    42    23    41    1
    43    24    25   ar
    44    25    26   ar
    45    25    42    1
    46    26    43    1
@<TRIPOS>MOLECULE
ZINC03832232
 34 36 0 0 0
SMALL
USER_CHARGES

@<TRIPOS>ATOM
      1 C1         13.4574    9.9526   14.6720 C.3     1  <0>1        0.0788
      2 O1         12.5928   10.6581   13.7795 O.3     1  <0>1       -0.4949
      3 C2         11.5965   11.3928   14.3383 C.ar    1  <0>1        0.1256
      4 C3         11.4636   11.4263   15.7093 C.ar    1  <0>1        0.0062
      5 C4         10.4368   12.1848   16.2918 C.ar    1  <0>1        0.0780
      6 C5          9.5496   12.9056   15.4523 C.ar    1  <0>1        0.0428
      7 C6          8.5229   13.6642   16.0346 C.ar    1  <0>1       -0.0399
      8 C7          8.4238   13.6739   17.4197 C.ar    1  <0>1        0.0010
      9 C8          9.3396   12.9348   18.1837 C.ar    1  <0>1        0.0360
     10 N1         10.2909   12.2325   17.6215 N.ar    1  <0>1       -0.2541
     11 C9          7.3570   14.4590   18.0865 C.ar    1  <0>1       -0.0136
     12 C10         6.4407   15.2050   17.3392 C.ar    1  <0>1       -0.0358
     13 C11         5.4608   15.9170   17.9995 C.ar    1  <0>1        0.0281
     14 N2          5.3887   15.9081   19.3169 N.ar    1  <0>1       -0.2632
     15 C12         6.2365   15.2217   20.0592 C.ar    1  <0>1        0.0281
     16 C13         7.2436   14.4780   19.4798 C.ar    1  <0>1       -0.0358
     17 C14         9.7108   12.8508   14.0520 C.ar    1  <0>1        0.1327
     18 C15        10.7204   12.1037   13.5155 C.ar    1  <0>1        0.0225
     19 O2          8.8657   13.5372   13.2412 O.3     1  <0>1       -0.4943
     20 C16         9.0904   13.4342   11.8338 C.3     1  <0>1        0.0788
     21 H1         13.9530   10.6622   15.3346 H       1  <0>1        0.0660
     22 H2         12.8722    9.2496   15.2650 H       1  <0>1        0.0660
     23 H3         14.2064    9.4078   14.0975 H       1  <0>1        0.0660
     24 H4         12.1481   10.8713   16.3336 H       1  <0>1        0.0676
     25 H5          7.8309   14.2248   15.4237 H       1  <0>1        0.0632
     26 H6          9.2552   12.9419   19.2604 H       1  <0>1        0.0836
     27 H7          6.4966   15.2205   16.2608 H       1  <0>1        0.0639
     28 H8          4.7459   16.4930   17.4307 H       1  <0>1        0.0830
     29 H9          6.1410   15.2426   21.1348 H       1  <0>1        0.0830
     30 H10         7.9341   13.9186   20.0935 H       1  <0>1        0.0639
     31 H11        10.8426   12.0626   12.4432 H       1  <0>1        0.0691
     32 H12         9.0071   12.3913   11.5279 H       1  <0>1        0.0660
     33 H13         8.3472   14.0290   11.3027 H       1  <0>1        0.0660
     34 H14        10.0881   13.8036   11.5970 H       1  <0>1        0.0660
@<TRIPOS>BOND
     1     1     2    1
     2     1    21    1
     3     1    22    1
     4     1    23    1
     5     2     3    1
     6     3    18   ar
     7     3     4   ar
     8     4     5   ar
     9     4    24    1
    10     5    10   ar
    11     5     6   ar
    12     6     7   ar
    13     6    17   ar
    14     7     8   ar
    15     7    25    1
    16     8     9   ar
    17     8    11    1
    18     9    10   ar
    19     9    26    1
    20    11    16   ar
    21    11    12   ar
    22    12    13   ar
    23    12    27    1
    24    13    14   ar
    25    13    28    1
    26    14    15   ar
    27    15    16   ar
    28    15    29    1
    29    16    30    1
    30    17    18   ar
    31    17    19    1
    32    18    31    1
    33    19    20    1
    34    20    32    1
    35    20    33    1
    36    20    34    1
@<TRIPOS>MOLECULE
ZINC03832233
 45 48 0 0 0
SMALL
USER_CHARGES

@<TRIPOS>ATOM
      1 C1          3.0451   11.5014   17.3107 C.ar    1  <0>1       -0.0617
      2 C2          3.5271   12.7580   16.9894 C.ar    1  <0>1       -0.0610
      3 C3          4.7503   12.8921   16.3656 C.ar    1  <0>1       -0.0496
      4 C4          5.5019   11.7566   16.0586 C.ar    1  <0>1        0.0370
      5 C5          5.0072   10.4916   16.3807 C.ar    1  <0>1       -0.0496
      6 C6          3.7852   10.3719   17.0096 C.ar    1  <0>1       -0.0610
      7 C7          6.8130   11.8926   15.3897 C.2     1  <0>1        0.2483
      8 O1          7.2390   12.9953   15.1058 O.2     1  <0>1       -0.2699
      9 N1          7.5363   10.7943   15.0947 N.am    1  <0>1       -0.2814
     10 C8          8.8133   10.9263   14.5389 C.ar    1  <0>1        0.0355
     11 C9          9.0809   11.9590   13.6488 C.ar    1  <0>1       -0.0390
     12 C10        10.3417   12.0906   13.0996 C.ar    1  <0>1       -0.0398
     13 C11        11.3411   11.1956   13.4337 C.ar    1  <0>1        0.0622
     14 C12        11.0809   10.1637   14.3282 C.ar    1  <0>1        0.0538
     15 C13         9.8137   10.0261   14.8766 C.ar    1  <0>1       -0.0178
     16 N2         12.0937    9.2619   14.6706 N.pl3   1  <0>1       -0.2823
     17 C14        11.7860    7.9321   14.9082 C.ar    1  <0>1        0.2200
     18 N3         10.5178    7.5482   14.8811 N.ar    1  <0>1       -0.2226
     19 C15        10.1830    6.2872   15.1029 C.ar    1  <0>1        0.0332
     20 C16        11.1756    5.3596   15.3668 C.ar    1  <0>1       -0.0174
     21 C17        12.5034    5.7939   15.3888 C.ar    1  <0>1        0.0775
     22 N4         12.7665    7.0770   15.1513 N.ar    1  <0>1       -0.2142
     23 C18        13.6034    4.8386   15.6664 C.ar    1  <0>1        0.0186
     24 C19        14.9323    5.2724   15.6886 C.ar    1  <0>1       -0.0497
     25 C20        15.9222    4.3417   15.9523 C.ar    1  <0>1       -0.0430
     26 C21        15.5683    3.0245   16.1832 C.ar    1  <0>1        0.0276
     27 N5         14.3055    2.6448   16.1557 N.ar    1  <0>1       -0.2626
     28 C22        13.3287    3.4953   15.9148 C.ar    1  <0>1        0.0367
     29 Cl1        12.9240   11.3647   12.7412 Cl      1  <0>1       -0.0816
     30 H1          2.0869   11.4020   17.7990 H       1  <0>1        0.0618
     31 H2          2.9447   13.6357   17.2278 H       1  <0>1        0.0618
     32 H3          5.1252   13.8733   16.1149 H       1  <0>1        0.0625
     33 H4          5.5818    9.6089   16.1420 H       1  <0>1        0.0625
     34 H5          3.4032    9.3940   17.2631 H       1  <0>1        0.0618
     35 H6          7.1713    9.9124   15.2678 H       1  <0>1        0.1551
     36 H7          8.3021   12.6595   13.3856 H       1  <0>1        0.0636
     37 H8         10.5470   12.8939   12.4077 H       1  <0>1        0.0633
     38 H9          9.6078    9.2227   15.5684 H       1  <0>1        0.0655
     39 H10        13.0116    9.5674   14.7417 H       1  <0>1        0.1551
     40 H11         9.1463    5.9853   15.0788 H       1  <0>1        0.0831
     41 H12        10.9295    4.3244   15.5516 H       1  <0>1        0.0654
     42 H13        15.1802    6.3072   15.5044 H       1  <0>1        0.0625
     43 H14        16.9596    4.6406   15.9779 H       1  <0>1        0.0633
     44 H15        16.3381    2.2957   16.3897 H       1  <0>1        0.0829
     45 H16        12.3064    3.1474   15.9052 H       1  <0>1        0.0836
@<TRIPOS>BOND
     1     1     6   ar
     2     1     2   ar
     3     1    30    1
     4     2     3   ar
     5     2    31    1
     6     3     4   ar
     7     3    32    1
     8     4     5   ar
     9     4     7    1
    10     5     6   ar
    11     5    33    1
    12     6    34    1
    13     7     8    2
    14     7     9   am
    15     9    10    1
    16     9    35    1
    17    10    15   ar
    18    10    11   ar
    19    11    12   ar
    20    11    36    1
    21    12    13   ar
    22    12    37    1
    23    13    14   ar
    24    13    29    1
    25    14    15   ar
    26    14    16    1
    27    15    38    1
    28    16    17    1
    29    16    39    1
    30    17    22   ar
    31    17    18   ar
    32    18    19   ar
    33    19    20   ar
    34    19    40    1
    35    20    21   ar
    36    20    41    1
    37    21    22   ar
    38    21    23    1
    39    23    28   ar
    40    23    24   ar
    41    24    25   ar
    42    24    42    1
    43    25    26   ar
    44    25    43    1
    45    26    27   ar
    46    26    44    1
    47    27    28   ar
    48    28    45    1
@<TRIPOS>MOLECULE
ZINC03832234
 44 46 0 0 0
SMALL
USER_CHARGES

@<TRIPOS>ATOM
      1 C1         11.4321   11.8003    7.6792 C.3     1  <0>1       -0.0306
      2 C2         12.2033   11.1520    8.8306 C.3     1  <0>1        0.0900
      3 O1         11.6152   11.5560   10.0952 O.3     1  <0>1       -0.4614
      4 C3         12.1813   11.0686   11.2166 C.2     1  <0>1        0.3392
      5 O2         13.1400   10.3263   11.1398 O.2     1  <0>1       -0.2450
      6 C4         11.6330   11.4315   12.5376 C.ar    1  <0>1        0.0590
      7 C5         10.5336   12.2901   12.6268 C.ar    1  <0>1       -0.0472
      8 C6         10.0198   12.6235   13.8592 C.ar    1  <0>1       -0.0532
      9 C7         10.6030   12.1137   15.0201 C.ar    1  <0>1       -0.0164
     10 C8         11.7040   11.2607   14.9326 C.ar    1  <0>1       -0.0532
     11 C9         12.2163   10.9215   13.7011 C.ar    1  <0>1       -0.0472
     12 C10        10.0523   12.4782   16.3469 C.ar    1  <0>1        0.0008
     13 C11         8.9603   13.3312   16.4408 C.ar    1  <0>1       -0.0433
     14 C12         8.4735   13.6408   17.7212 C.ar    1  <0>1        0.0046
     15 C13         7.3687   14.4933   17.8922 C.ar    1  <0>1       -0.0071
     16 C14         6.9250   14.7790   19.1498 C.ar    1  <0>1        0.1622
     17 C15         7.5595   14.2299   20.2749 C.ar    1  <0>1        0.1635
     18 C16         8.6338   13.3995   20.1386 C.ar    1  <0>1        0.0097
     19 C17         9.1166   13.0852   18.8572 C.ar    1  <0>1        0.0747
     20 N1         10.1686   12.2734   18.7030 N.ar    1  <0>1       -0.2543
     21 C18        10.6341   11.9684   17.5181 C.ar    1  <0>1        0.0360
     22 O3          7.0979   14.5298   21.5172 O.3     1  <0>1       -0.4914
     23 C19         7.7846   13.9416   22.6238 C.3     1  <0>1        0.0790
     24 O4          5.8569   15.6036   19.3152 O.3     1  <0>1       -0.4914
     25 C20         5.2544   16.1303   18.1313 C.3     1  <0>1        0.0790
     26 H1         10.3906   11.4807    7.7141 H       1  <0>1        0.0262
     27 H2         11.4826   12.8851    7.7733 H       1  <0>1        0.0262
     28 H3         11.8735   11.4970    6.7299 H       1  <0>1        0.0262
     29 H4         13.2448   11.4716    8.7957 H       1  <0>1        0.0695
     30 H5         12.1527   10.0672    8.7365 H       1  <0>1        0.0695
     31 H6         10.0849   12.6882   11.7287 H       1  <0>1        0.0626
     32 H7          9.1678   13.2836   13.9282 H       1  <0>1        0.0624
     33 H8         12.1545   10.8668   15.8317 H       1  <0>1        0.0624
     34 H9         13.0688   10.2619   13.6336 H       1  <0>1        0.0626
     35 H10         8.4970   13.7411   15.5556 H       1  <0>1        0.0631
     36 H11         6.8739   14.9196   17.0321 H       1  <0>1        0.0662
     37 H12         9.1121   12.9854   21.0139 H       1  <0>1        0.0677
     38 H13        11.4861   11.3093   17.4400 H       1  <0>1        0.0836
     39 H14         7.3157   14.2621   23.5541 H       1  <0>1        0.0660
     40 H15         7.7343   12.8555   22.5469 H       1  <0>1        0.0660
     41 H16         8.8274   14.2587   22.6144 H       1  <0>1        0.0660
     42 H17         5.9907   16.7124   17.5770 H       1  <0>1        0.0660
     43 H18         4.8972   15.3096   17.5092 H       1  <0>1        0.0660
     44 H19         4.4159   16.7709   18.4044 H       1  <0>1        0.0660
@<TRIPOS>BOND
     1     1     2    1
     2     1    26    1
     3     1    27    1
     4     1    28    1
     5     2     3    1
     6     2    29    1
     7     2    30    1
     8     3     4    1
     9     4     5    2
    10     4     6    1
    11     6    11   ar
    12     6     7   ar
    13     7     8   ar
    14     7    31    1
    15     8     9   ar
    16     8    32    1
    17     9    10   ar
    18     9    12    1
    19    10    11   ar
    20    10    33    1
    21    11    34    1
    22    12    21   ar
    23    12    13   ar
    24    13    14   ar
    25    13    35    1
    26    14    19   ar
    27    14    15   ar
    28    15    16   ar
    29    15    36    1
    30    16    17   ar
    31    16    24    1
    32    17    18   ar
    33    17    22    1
    34    18    19   ar
    35    18    37    1
    36    19    20   ar
    37    20    21   ar
    38    21    38    1
    39    22    23    1
    40    23    39    1
    41    23    40    1
    42    23    41    1
    43    24    25    1
    44    25    42    1
    45    25    43    1
    46    25    44    1
@<TRIPOS>MOLECULE
ZINC03832235
 31 33 0 0 0
SMALL
USER_CHARGES

@<TRIPOS>ATOM
      1 C1          7.3192   12.6049   21.1336 C.ar    1  <0>1       -0.0617
      2 C2          8.1070   11.4694   21.2037 C.ar    1  <0>1       -0.0612
      3 C3          8.8180   11.0500   20.0989 C.ar    1  <0>1       -0.0546
      4 C4          8.7414   11.7748   18.9066 C.ar    1  <0>1       -0.0250
      5 C5          7.9483   12.9237   18.8450 C.ar    1  <0>1       -0.0546
      6 C6          7.2381   13.3275   19.9563 C.ar    1  <0>1       -0.0612
      7 C7          9.4981   11.3331   17.7216 C.2     1  <0>1       -0.0540
      8 C8          9.4221   12.0321   16.5774 C.2     1  <0>1       -0.0526
      9 C9         10.1785   11.5904   15.3928 C.ar    1  <0>1       -0.0063
     10 C10        10.1081   12.3130   14.2055 C.ar    1  <0>1       -0.0440
     11 C11        10.8455   11.8453   13.1054 C.ar    1  <0>1        0.0009
     12 C12        10.8208   12.5199   11.8724 C.ar    1  <0>1       -0.0525
     13 C13        11.5483   12.0384   10.8274 C.ar    1  <0>1       -0.0611
     14 C14        12.3177   10.8848   10.9641 C.ar    1  <0>1       -0.0597
     15 C15        12.3644   10.2064   12.1434 C.ar    1  <0>1       -0.0357
     16 C16        11.6279   10.6711   13.2465 C.ar    1  <0>1        0.0710
     17 N1         11.6604   10.0207   14.4151 N.ar    1  <0>1       -0.2544
     18 C17        10.9827   10.4370   15.4535 C.ar    1  <0>1        0.0354
     19 H1          6.7646   12.9286   22.0020 H       1  <0>1        0.0618
     20 H2          8.1655   10.9105   22.1260 H       1  <0>1        0.0618
     21 H3          9.4322   10.1634   20.1550 H       1  <0>1        0.0623
     22 H4          7.8878   13.4914   17.9282 H       1  <0>1        0.0623
     23 H5          6.6209   14.2125   19.9088 H       1  <0>1        0.0618
     24 H6         10.1137   10.4473   17.7734 H       1  <0>1        0.0624
     25 H7          8.8065   12.9179   16.5257 H       1  <0>1        0.0624
     26 H8          9.5020   13.2038   14.1313 H       1  <0>1        0.0630
     27 H9         10.2277   13.4148   11.7548 H       1  <0>1        0.0624
     28 H10        11.5291   12.5574    9.8804 H       1  <0>1        0.0618
     29 H11        12.8866   10.5228   10.1204 H       1  <0>1        0.0618
     30 H12        12.9662    9.3139   12.2312 H       1  <0>1        0.0639
     31 H13        11.0380    9.8803   16.3774 H       1  <0>1        0.0836
@<TRIPOS>BOND
     1     1     6   ar
     2     1     2   ar
     3     1    19    1
     4     2     3   ar
     5     2    20    1
     6     3     4   ar
     7     3    21    1
     8     4     5   ar
     9     4     7    1
    10     5     6   ar
    11     5    22    1
    12     6    23    1
    13     7     8    2
    14     7    24    1
    15     8     9    1
    16     8    25    1
    17     9    18   ar
    18     9    10   ar
    19    10    11   ar
    20    10    26    1
    21    11    16   ar
    22    11    12   ar
    23    12    13   ar
    24    12    27    1
    25    13    14   ar
    26    13    28    1
    27    14    15   ar
    28    14    29    1
    29    15    16   ar
    30    15    30    1
    31    16    17   ar
    32    17    18   ar
    33    18    31    1
@<TRIPOS>MOLECULE
ZINC03832236
 36 38 0 0 0
SMALL
USER_CHARGES

@<TRIPOS>ATOM
      1 C1          6.1836   12.0861   22.5378 C.3     1  <0>1        0.0794
      2 O1          6.0593   13.3907   21.9681 O.3     1  <0>1       -0.4887
      3 C2          6.6520   13.5967   20.7637 C.ar    1  <0>1        0.1587
      4 C3          6.6870   14.7311   20.0081 C.ar    1  <0>1       -0.0118
      5 C4          7.3613   14.7125   18.8063 C.ar    1  <0>1       -0.0433
      6 C5          7.9638   13.5502   18.4065 C.ar    1  <0>1        0.0243
      7 S1          7.5867   12.4519   19.7623 S.2     1  <0>1       -0.0519
      8 C6          8.7324   13.2774   17.1751 C.ar    1  <0>1        0.0075
      9 C7          9.2722   12.0153   16.9506 C.ar    1  <0>1       -0.0428
     10 C8          9.9993   11.8105   15.7669 C.ar    1  <0>1        0.0047
     11 C9         10.5782   10.5625   15.4767 C.ar    1  <0>1       -0.0071
     12 C10        11.2789   10.3964   14.3183 C.ar    1  <0>1        0.1622
     13 C11        11.4271   11.4583   13.4127 C.ar    1  <0>1        0.1635
     14 C12        10.8761   12.6800   13.6684 C.ar    1  <0>1        0.0097
     15 C13        10.1483   12.8851   14.8529 C.ar    1  <0>1        0.0747
     16 N1          9.6011   14.0761   15.1209 N.ar    1  <0>1       -0.2542
     17 C14         8.9198   14.2895   16.2179 C.ar    1  <0>1        0.0365
     18 O2         12.1296   11.2671   12.2652 O.3     1  <0>1       -0.4914
     19 C15        12.2470   12.3847   11.3824 C.3     1  <0>1        0.0790
     20 O3         11.8391    9.1899   14.0378 O.3     1  <0>1       -0.4914
     21 C16        11.6529    8.1491   14.9991 C.3     1  <0>1        0.0790
     22 H1          5.7413   11.3520   21.8644 H       1  <0>1        0.0660
     23 H2          7.2380   11.8536   22.6868 H       1  <0>1        0.0660
     24 H3          5.6662   12.0576   23.4968 H       1  <0>1        0.0660
     25 H4          6.1981   15.6319   20.3486 H       1  <0>1        0.0660
     26 H5          7.4107   15.5977   18.1897 H       1  <0>1        0.0630
     27 H6          9.1397   11.2181   17.6672 H       1  <0>1        0.0631
     28 H7         10.4693    9.7398   16.1678 H       1  <0>1        0.0662
     29 H8         10.9993   13.4877   12.9622 H       1  <0>1        0.0677
     30 H9          8.4958   15.2671   16.3938 H       1  <0>1        0.0836
     31 H10        12.8301   12.0971   10.5076 H       1  <0>1        0.0660
     32 H11        11.2537   12.7051   11.0679 H       1  <0>1        0.0660
     33 H12        12.7466   13.2045   11.8987 H       1  <0>1        0.0660
     34 H13        12.1490    7.2422   14.6534 H       1  <0>1        0.0660
     35 H14        12.0802    8.4555   15.9538 H       1  <0>1        0.0660
     36 H15        10.5874    7.9555   15.1233 H       1  <0>1        0.0660
@<TRIPOS>BOND
     1     1     2    1
     2     1    22    1
     3     1    23    1
     4     1    24    1
     5     2     3    1
     6     3     7   ar
     7     3     4   ar
     8     4     5   ar
     9     4    25    1
    10     5     6   ar
    11     5    26    1
    12     6     7   ar
    13     6     8    1
    14     8    17   ar
    15     8     9   ar
    16     9    10   ar
    17     9    27    1
    18    10    15   ar
    19    10    11   ar
    20    11    12   ar
    21    11    28    1
    22    12    13   ar
    23    12    20    1
    24    13    14   ar
    25    13    18    1
    26    14    15   ar
    27    14    29    1
    28    15    16   ar
    29    16    17   ar
    30    17    30    1
    31    18    19    1
    32    19    31    1
    33    19    32    1
    34    19    33    1
    35    20    21    1
    36    21    34    1
    37    21    35    1
    38    21    36    1
@<TRIPOS>MOLECULE
ZINC03832237
 49 52 0 0 0
SMALL
USER_CHARGES

@<TRIPOS>ATOM
      1 C1          9.1730   15.3702   18.8017 C.ar    1  <0>1       -0.0616
      2 C2          9.1319   15.6097   17.4405 C.ar    1  <0>1       -0.0598
      3 C3          9.1674   14.5540   16.5506 C.ar    1  <0>1       -0.0378
      4 C4          9.2447   13.2511   17.0242 C.ar    1  <0>1        0.0481
      5 C5          9.2802   13.0135   18.3918 C.ar    1  <0>1       -0.0378
      6 C6          9.2505   14.0737   19.2764 C.ar    1  <0>1       -0.0598
      7 N1          9.2809   12.1780   16.1241 N.ar    1  <0>1       -0.2985
      8 C7          8.4285   11.9678   15.0823 C.ar    1  <0>1        0.1015
      9 N2          8.7551   10.8780   14.4507 N.ar    1  <0>1       -0.2353
     10 C8          9.8391   10.3127   15.0421 C.ar    1  <0>1        0.0928
     11 C9         10.1933   11.1368   16.1238 C.ar    1  <0>1        0.0735
     12 C10        11.2778   10.8060   16.9231 C.ar    1  <0>1       -0.0323
     13 C11        12.0078    9.6680   16.6543 C.ar    1  <0>1       -0.0179
     14 C12        11.6637    8.8469   15.5846 C.ar    1  <0>1        0.1226
     15 C13        10.5868    9.1619   14.7798 C.ar    1  <0>1        0.0075
     16 O1         12.3923    7.7272   15.3305 O.3     1  <0>1       -0.4917
     17 C14        13.4935    7.4586   16.2006 C.3     1  <0>1        0.0944
     18 C15        14.1876    6.1678   15.7612 C.3     1  <0>1        0.0217
     19 C16        15.3668    5.8802   16.6928 C.3     1  <0>1       -0.0286
     20 C17        15.1535    3.4785   16.4616 C.3     1  <0>1       -0.0078
     21 C18        15.8629    2.2198   15.9552 C.3     1  <0>1        0.0878
     22 O2         17.1099    2.0734   16.6399 O.3     1  <0>1       -0.3693
     23 C19        17.9916    3.1874   16.4751 C.3     1  <0>1        0.0878
     24 C20        17.3037    4.4558   16.9869 C.3     1  <0>1       -0.0078
     25 H1          9.1452   16.1974   19.4956 H       1  <0>1        0.0618
     26 H2          9.0720   16.6235   17.0727 H       1  <0>1        0.0618
     27 H3          9.1355   14.7419   15.4875 H       1  <0>1        0.0638
     28 H4          9.3357   12.0009   18.7632 H       1  <0>1        0.0638
     29 H5          9.2825   13.8898   20.3402 H       1  <0>1        0.0618
     30 H6          7.6023   12.6117   14.8192 H       1  <0>1        0.1032
     31 H7         11.5496   11.4389   17.7549 H       1  <0>1        0.0640
     32 H8         12.8516    9.4118   17.2778 H       1  <0>1        0.0655
     33 H9         10.3237    8.5217   13.9508 H       1  <0>1        0.0676
     34 H10        14.2022    8.2856   16.1557 H       1  <0>1        0.0698
     35 H11        13.1305    7.3462   17.2222 H       1  <0>1        0.0698
     36 H12        13.4789    5.3409   15.8060 H       1  <0>1        0.0350
     37 H13        14.5507    6.2802   14.7396 H       1  <0>1        0.0350
     38 H14        16.0754    6.7072   16.6479 H       1  <0>1        0.0815
     39 H15        15.0037    5.7678   17.7143 H       1  <0>1        0.0815
     40 H16        14.9243    3.3656   17.5213 H       1  <0>1        0.0837
     41 H17        14.2296    3.6254   15.9023 H       1  <0>1        0.0837
     42 H18        16.0443    2.3103   14.8842 H       1  <0>1        0.0613
     43 H19        15.2379    1.3477   16.1468 H       1  <0>1        0.0613
     44 H20        18.2349    3.3060   15.4193 H       1  <0>1        0.0613
     45 H21        18.9060    3.0150   17.0428 H       1  <0>1        0.0613
     46 H22        17.9494    5.3162   16.8110 H       1  <0>1        0.0837
     47 H23        17.1087    4.3586   18.0549 H       1  <0>1        0.0837
     48 N3         16.0395    4.6418   16.2444 N.4     1  <0>1        0.2386
     49 H24        16.2489    4.7198   15.2423 H       1  <0>1        0.2035
@<TRIPOS>BOND
     1     1     6   ar
     2     1     2   ar
     3     1    25    1
     4     2     3   ar
     5     2    26    1
     6     3     4   ar
     7     3    27    1
     8     4     5   ar
     9     4     7    1
    10     5     6   ar
    11     5    28    1
    12     6    29    1
    13     7    11   ar
    14     7     8   ar
    15     8     9   ar
    16     8    30    1
    17     9    10   ar
    18    10    15   ar
    19    10    11   ar
    20    11    12   ar
    21    12    13   ar
    22    12    31    1
    23    13    14   ar
    24    13    32    1
    25    14    15   ar
    26    14    16    1
    27    15    33    1
    28    16    17    1
    29    17    18    1
    30    17    34    1
    31    17    35    1
    32    18    19    1
    33    18    36    1
    34    18    37    1
    35    19    38    1
    36    19    39    1
    37    19    48    1
    38    20    21    1
    39    20    40    1
    40    20    41    1
    41    20    48    1
    42    21    22    1
    43    21    42    1
    44    21    43    1
    45    22    23    1
    46    23    24    1
    47    23    44    1
    48    23    45    1
    49    24    46    1
    50    24    47    1
    51    24    48    1
    52    48    49    1
@<TRIPOS>MOLECULE
ZINC03832238
 44 47 0 0 0
SMALL
USER_CHARGES

@<TRIPOS>ATOM
      1 C1         13.5959   10.5046   14.5413 C.3     1  <0>1       -0.0469
      2 C2         12.3633    9.7344   14.0634 C.3     1  <0>1        0.0252
      3 N1         11.7642    9.0215   15.1943 N.ar    1  <0>1       -0.2925
      4 C3         10.8029    9.6389   15.9540 C.ar    1  <0>1        0.1485
      5 C4         10.2115    8.9638   17.0438 C.ar    1  <0>1        0.0365
      6 C5         10.6054    7.6440   17.3614 C.ar    1  <0>1       -0.0367
      7 C6         11.5655    7.0359   16.5977 C.ar    1  <0>1        0.0474
      8 C7         12.1588    7.7644   15.4743 C.ar    1  <0>1        0.2606
      9 O1         13.0134    7.2309   14.7898 O.2     1  <0>1       -0.2670
     10 C8         12.0003    5.6532   16.9050 C.ar    1  <0>1       -0.0127
     11 C9         13.3095    5.4064   17.3171 C.ar    1  <0>1       -0.0539
     12 C10        13.7069    4.1173   17.6075 C.ar    1  <0>1       -0.0612
     13 C11        12.8129    3.0694   17.4791 C.ar    1  <0>1       -0.0617
     14 C12        11.5143    3.3074   17.0658 C.ar    1  <0>1       -0.0612
     15 C13        11.1035    4.5929   16.7780 C.ar    1  <0>1       -0.0539
     16 C14         9.2319    9.6308   17.7947 C.ar    1  <0>1        0.0418
     17 N2          8.9031   10.8624   17.4522 N.ar    1  <0>1       -0.2219
     18 C15         9.4811   11.4667   16.4200 C.ar    1  <0>1        0.2214
     19 N3         10.4099   10.8781   15.6820 N.ar    1  <0>1       -0.1961
     20 N4          9.0993   12.7566   16.1049 N.pl3   1  <0>1       -0.2836
     21 C16         8.0420   13.3602   16.7921 C.ar    1  <0>1        0.0336
     22 C17         6.9650   12.5957   17.2224 C.ar    1  <0>1       -0.0405
     23 C18         5.9249   13.1943   17.9061 C.ar    1  <0>1       -0.0600
     24 C19         5.9496   14.5548   18.1526 C.ar    1  <0>1       -0.0616
     25 C20         7.0174   15.3197   17.7201 C.ar    1  <0>1       -0.0600
     26 C21         8.0635   14.7266   17.0410 C.ar    1  <0>1       -0.0405
     27 H1         14.0416   11.0351   13.6998 H       1  <0>1        0.0247
     28 H2         13.3018   11.2214   15.3080 H       1  <0>1        0.0247
     29 H3         14.3224    9.8061   14.9564 H       1  <0>1        0.0247
     30 H4         12.6574    9.0177   13.2967 H       1  <0>1        0.0490
     31 H5         11.6368   10.4330   13.6483 H       1  <0>1        0.0490
     32 H6         10.1563    7.1233   18.1942 H       1  <0>1        0.0633
     33 H7         14.0096    6.2230   17.4130 H       1  <0>1        0.0624
     34 H8         14.7193    3.9254   17.9309 H       1  <0>1        0.0618
     35 H9         13.1299    2.0615   17.7029 H       1  <0>1        0.0618
     36 H10        10.8207    2.4853   16.9677 H       1  <0>1        0.0618
     37 H11        10.0896    4.7775   16.4554 H       1  <0>1        0.0624
     38 H12         8.7573    9.1470   18.6356 H       1  <0>1        0.0838
     39 H13         9.5649   13.2434   15.4069 H       1  <0>1        0.1550
     40 H14         6.9431   11.5339   17.0263 H       1  <0>1        0.0636
     41 H15         5.0892   12.5997   18.2446 H       1  <0>1        0.0618
     42 H16         5.1330   15.0209   18.6837 H       1  <0>1        0.0618
     43 H17         7.0334   16.3820   17.9139 H       1  <0>1        0.0618
     44 H18         8.8971   15.3245   16.7034 H       1  <0>1        0.0636
@<TRIPOS>BOND
     1     1     2    1
     2     1    27    1
     3     1    28    1
     4     1    29    1
     5     2     3    1
     6     2    30    1
     7     2    31    1
     8     3     8   ar
     9     3     4   ar
    10     4    19   ar
    11     4     5   ar
    12     5     6   ar
    13     5    16   ar
    14     6     7   ar
    15     6    32    1
    16     7     8   ar
    17     7    10    1
    18     8     9    2
    19    10    15   ar
    20    10    11   ar
    21    11    12   ar
    22    11    33    1
    23    12    13   ar
    24    12    34    1
    25    13    14   ar
    26    13    35    1
    27    14    15   ar
    28    14    36    1
    29    15    37    1
    30    16    17   ar
    31    16    38    1
    32    17    18   ar
    33    18    19   ar
    34    18    20    1
    35    20    21    1
    36    20    39    1
    37    21    26   ar
    38    21    22   ar
    39    22    23   ar
    40    22    40    1
    41    23    24   ar
    42    23    41    1
    43    24    25   ar
    44    24    42    1
    45    25    26   ar
    46    25    43    1
    47    26    44    1
@<TRIPOS>MOLECULE
ZINC03832239
 57 60 0 0 0
SMALL
USER_CHARGES

@<TRIPOS>ATOM
      1 C1         12.3162   16.4453   21.7363 C.3     1  <0>1       -0.0427
      2 C2         12.6011   16.9242   19.3795 C.3     1  <0>1        0.0092
      3 C3         11.8956   16.9043   18.0214 C.3     1  <0>1        0.0099
      4 C4         10.6115   14.9740   18.7169 C.3     1  <0>1        0.0099
      5 C5         11.3170   14.9939   20.0749 C.3     1  <0>1        0.0092
      6 C6         10.8964   15.4529   16.3601 C.3     1  <0>1        0.0467
      7 C7         10.7399   14.0095   15.9563 C.2     1  <0>1        0.2624
      8 O1         11.1039   13.1275   16.7050 O.2     1  <0>1       -0.2696
      9 N1         10.1955   13.6987   14.7632 N.am    1  <0>1       -0.2811
     10 C8         10.1415   12.3646   14.3450 C.ar    1  <0>1        0.0353
     11 C9          9.0812   11.9232   13.5630 C.ar    1  <0>1       -0.0404
     12 C10         9.0295   10.6074   13.1457 C.ar    1  <0>1       -0.0583
     13 C11        10.0259    9.7234   13.5129 C.ar    1  <0>1       -0.0404
     14 C12        11.0861   10.1570   14.2991 C.ar    1  <0>1        0.0353
     15 C13        11.1435   11.4798   14.7155 C.ar    1  <0>1       -0.0192
     16 N2         12.0938    9.2619   14.6706 N.pl3   1  <0>1       -0.2836
     17 C14        11.7860    7.9322   14.9083 C.ar    1  <0>1        0.2200
     18 N3         10.5178    7.5482   14.8811 N.ar    1  <0>1       -0.2226
     19 C15        10.1830    6.2870   15.1025 C.ar    1  <0>1        0.0332
     20 C16        11.1756    5.3594   15.3658 C.ar    1  <0>1       -0.0174
     21 C17        12.5035    5.7937   15.3880 C.ar    1  <0>1        0.0775
     22 N4         12.7665    7.0770   15.1513 N.ar    1  <0>1       -0.2142
     23 C18        13.6035    4.8384   15.6655 C.ar    1  <0>1        0.0186
     24 C19        14.9324    5.2722   15.6878 C.ar    1  <0>1       -0.0497
     25 C20        15.9223    4.3415   15.9514 C.ar    1  <0>1       -0.0430
     26 C21        15.5685    3.0244   16.1823 C.ar    1  <0>1        0.0276
     27 N5         14.3057    2.6447   16.1546 N.ar    1  <0>1       -0.2626
     28 C22        13.3289    3.4951   15.9138 C.ar    1  <0>1        0.0367
     29 H1         12.5303   17.4854   21.9821 H       1  <0>1        0.0778
     30 H2         11.6301   16.0312   22.4751 H       1  <0>1        0.0778
     31 H3         13.2436   15.8726   21.7405 H       1  <0>1        0.0778
     32 H4         13.5069   16.3203   19.3277 H       1  <0>1        0.0868
     33 H5         12.8625   17.9503   19.6385 H       1  <0>1        0.0868
     34 H6         12.5707   17.2855   17.2553 H       1  <0>1        0.0868
     35 H7         11.0044   17.5303   18.0650 H       1  <0>1        0.0868
     36 H8          9.7057   15.5780   18.7688 H       1  <0>1        0.0868
     37 H9         10.3504   13.9479   18.4578 H       1  <0>1        0.0868
     38 H10        12.2082   14.3679   20.0310 H       1  <0>1        0.0868
     39 H11        10.6419   14.6127   20.8411 H       1  <0>1        0.0868
     40 H12        11.5331   15.9651   15.6387 H       1  <0>1        0.0913
     41 H13         9.9174   15.9315   16.3848 H       1  <0>1        0.0913
     42 H14         9.8376   14.3996   14.1961 H       1  <0>1        0.1550
     43 H15         8.2985   12.6107   13.2779 H       1  <0>1        0.0636
     44 H16         8.2062   10.2677   12.5347 H       1  <0>1        0.0619
     45 H17         9.9807    8.6943   13.1882 H       1  <0>1        0.0636
     46 H18        11.9668   11.8195   15.3265 H       1  <0>1        0.0655
     47 H19        13.0084    9.5719   14.7622 H       1  <0>1        0.1550
     48 H20         9.1464    5.9851   15.0783 H       1  <0>1        0.0831
     49 H21        10.9297    4.3241   15.5503 H       1  <0>1        0.0654
     50 H22        15.1803    6.3071   15.5036 H       1  <0>1        0.0625
     51 H23        16.9598    4.6405   15.9770 H       1  <0>1        0.0633
     52 H24        16.3383    2.2956   16.3887 H       1  <0>1        0.0829
     53 H25        12.3066    3.1472   15.9041 H       1  <0>1        0.0836
     54 N6         11.6792   16.3889   20.4032 N.4     1  <0>1        0.2405
     55 H26        10.8267   16.9609   20.4164 H       1  <0>1        0.2035
     56 N7         11.5335   15.5095   17.6931 N.4     1  <0>1        0.2492
     57 H27        12.3862   14.9376   17.6799 H       1  <0>1        0.2043
@<TRIPOS>BOND
     1     1    29    1
     2     1    30    1
     3     1    31    1
     4     1    54    1
     5     2     3    1
     6     2    32    1
     7     2    33    1
     8     2    54    1
     9     3    34    1
    10     3    35    1
    11     3    56    1
    12     4     5    1
    13     4    36    1
    14     4    37    1
    15     4    56    1
    16     5    38    1
    17     5    39    1
    18     5    54    1
    19     6     7    1
    20     6    40    1
    21     6    41    1
    22     6    56    1
    23     7     8    2
    24     7     9   am
    25     9    10    1
    26     9    42    1
    27    10    15   ar
    28    10    11   ar
    29    11    12   ar
    30    11    43    1
    31    12    13   ar
    32    12    44    1
    33    13    14   ar
    34    13    45    1
    35    14    15   ar
    36    14    16    1
    37    15    46    1
    38    16    17    1
    39    16    47    1
    40    17    22   ar
    41    17    18   ar
    42    18    19   ar
    43    19    20   ar
    44    19    48    1
    45    20    21   ar
    46    20    49    1
    47    21    22   ar
    48    21    23    1
    49    23    28   ar
    50    23    24   ar
    51    24    25   ar
    52    24    50    1
    53    25    26   ar
    54    25    51    1
    55    26    27   ar
    56    26    52    1
    57    27    28   ar
    58    28    53    1
    59    54    55    1
    60    56    57    1
@<TRIPOS>MOLECULE
ZINC03832240
 24 26 0 0 0
SMALL
USER_CHARGES

@<TRIPOS>ATOM
      1 C1          7.2906   12.4839   20.8438 C.ar    1  <0>1       -0.0611
      2 C2          6.6178   13.6808   20.6050 C.ar    1  <0>1       -0.0597
      3 C3          6.7019   14.3057   19.3990 C.ar    1  <0>1       -0.0357
      4 C4          7.4787   13.7410   18.3722 C.ar    1  <0>1        0.0710
      5 C5          8.1626   12.5237   18.6174 C.ar    1  <0>1        0.0010
      6 C6          8.0525   11.9062   19.8749 C.ar    1  <0>1       -0.0525
      7 C7          8.9399   11.9571   17.5926 C.ar    1  <0>1       -0.0434
      8 C8          9.0007   12.6239   16.3776 C.ar    1  <0>1        0.0013
      9 C9          8.2944   13.8259   16.2119 C.ar    1  <0>1        0.0360
     10 N1          7.5803   14.3399   17.1809 N.ar    1  <0>1       -0.2544
     11 C10         9.8056   12.0704   15.2612 C.ar    1  <0>1       -0.0094
     12 C11         9.8739   12.7300   14.0376 C.ar    1  <0>1       -0.0470
     13 C12        10.6184   12.1946   13.0442 C.ar    1  <0>1       -0.0237
     14 S1         11.2622   10.7159   13.8086 S.2     1  <0>1       -0.1045
     15 C13        10.5020   10.9038   15.4126 C.ar    1  <0>1       -0.0166
     16 H1          7.2064   12.0088   21.8100 H       1  <0>1        0.0618
     17 H2          6.0194   14.1194   21.3898 H       1  <0>1        0.0618
     18 H3          6.1733   15.2324   19.2310 H       1  <0>1        0.0639
     19 H4          8.5698   10.9788   20.0717 H       1  <0>1        0.0624
     20 H5          9.4739   11.0311   17.7464 H       1  <0>1        0.0631
     21 H6          8.3452   14.3409   15.2640 H       1  <0>1        0.0836
     22 H7          9.3402   13.6563   13.8840 H       1  <0>1        0.0629
     23 H8         10.7822   12.5668   12.0437 H       1  <0>1        0.0693
     24 H9         10.5728   10.2615   16.2781 H       1  <0>1        0.0699
@<TRIPOS>BOND
     1     1     6   ar
     2     1     2   ar
     3     1    16    1
     4     2     3   ar
     5     2    17    1
     6     3     4   ar
     7     3    18    1
     8     4    10   ar
     9     4     5   ar
    10     5     6   ar
    11     5     7   ar
    12     6    19    1
    13     7     8   ar
    14     7    20    1
    15     8     9   ar
    16     8    11    1
    17     9    10   ar
    18     9    21    1
    19    11    15   ar
    20    11    12   ar
    21    12    13   ar
    22    12    22    1
    23    13    14   ar
    24    13    23    1
    25    14    15   ar
    26    15    24    1
@<TRIPOS>MOLECULE
ZINC03832241
 42 44 0 0 0
SMALL
USER_CHARGES

@<TRIPOS>ATOM
      1 C1         12.9530    5.0008   17.5323 C.3     1  <0>1        0.0789
      2 O1         12.7651    6.1091   16.6500 O.3     1  <0>1       -0.4928
      3 C2         12.2363    7.2407   17.1850 C.ar    1  <0>1        0.1500
      4 C3         11.9055    7.2808   18.5330 C.ar    1  <0>1       -0.0171
      5 C4         11.3687    8.4276   19.0788 C.ar    1  <0>1       -0.0504
      6 C5         11.1581    9.5476   18.2757 C.ar    1  <0>1       -0.0140
      7 C6         11.4858    9.5024   16.9217 C.ar    1  <0>1       -0.0202
      8 C7         12.0273    8.3541   16.3828 C.ar    1  <0>1        0.1635
      9 N1         12.3813    8.3072   14.9463 N.4     1  <0>1        0.0096
     10 O2         12.1982    9.2837   14.2417 O.2     1  <0>1       -0.1299
     11 O3         12.8557    7.2920   14.4687 O.2     1  <0>1       -0.3960
     12 C8         10.5808   10.7828   18.8598 C.ar    1  <0>1        0.0009
     13 C9         10.2538   10.8321   20.2077 C.ar    1  <0>1       -0.0433
     14 C10         9.7037   12.0230   20.7100 C.ar    1  <0>1        0.0046
     15 C11         9.3416   12.1423   22.0632 C.ar    1  <0>1       -0.0071
     16 C12         8.8098   13.3127   22.5189 C.ar    1  <0>1        0.1622
     17 C13         8.6201   14.3991   21.6507 C.ar    1  <0>1        0.1635
     18 C14         8.9625   14.3114   20.3328 C.ar    1  <0>1        0.0097
     19 C15         9.5129   13.1198   19.8310 C.ar    1  <0>1        0.0747
     20 N2          9.8540   13.0137   18.5421 N.ar    1  <0>1       -0.2543
     21 C16        10.3674   11.9121   18.0549 C.ar    1  <0>1        0.0360
     22 O4          8.0880   15.5542   22.1292 O.3     1  <0>1       -0.4914
     23 C17         7.9183   16.6249   21.1982 C.3     1  <0>1        0.0790
     24 O5          8.4601   13.4283   23.8274 O.3     1  <0>1       -0.4914
     25 C18         8.6776   12.2876   24.6602 C.3     1  <0>1        0.0790
     26 H1         13.3808    4.1646   16.9792 H       1  <0>1        0.0660
     27 H2         13.6293    5.2878   18.3374 H       1  <0>1        0.0660
     28 H3         11.9922    4.7045   17.9530 H       1  <0>1        0.0660
     29 H4         12.0686    6.4127   19.1545 H       1  <0>1        0.0655
     30 H5         11.1113    8.4580   20.1272 H       1  <0>1        0.0625
     31 H6         11.3196   10.3669   16.2962 H       1  <0>1        0.0647
     32 H7         10.4125    9.9784   20.8500 H       1  <0>1        0.0631
     33 H8          9.4842   11.3117   22.7384 H       1  <0>1        0.0662
     34 H9          8.8103   15.1558   19.6767 H       1  <0>1        0.0677
     35 H10        10.6284   11.8703   17.0077 H       1  <0>1        0.0836
     36 H11         7.4856   17.4852   21.7088 H       1  <0>1        0.0660
     37 H12         8.8867   16.8998   20.7802 H       1  <0>1        0.0660
     38 H13         7.2533   16.3065   20.3955 H       1  <0>1        0.0660
     39 H14         8.1041   11.4436   24.2773 H       1  <0>1        0.0660
     40 H15         9.7381   12.0358   24.6617 H       1  <0>1        0.0660
     41 H16         8.3565   12.5137   25.6772 H       1  <0>1        0.0660
     42 H          12.9965    6.5408   15.0106 H       1  <0>1        0.3292
@<TRIPOS>BOND
     1     1     2    1
     2     1    26    1
     3     1    27    1
     4     1    28    1
     5     2     3    1
     6     3     8   ar
     7     3     4   ar
     8     4     5   ar
     9     4    29    1
    10     5     6   ar
    11     5    30    1
    12     6     7   ar
    13     6    12    1
    14     7     8   ar
    15     7    31    1
    16     8     9    1
    17     9    10    2
    18     9    11    1
    19    12    21   ar
    20    12    13   ar
    21    13    14   ar
    22    13    32    1
    23    14    19   ar
    24    14    15   ar
    25    15    16   ar
    26    15    33    1
    27    16    17   ar
    28    16    24    1
    29    17    18   ar
    30    17    22    1
    31    18    19   ar
    32    18    34    1
    33    19    20   ar
    34    20    21   ar
    35    21    35    1
    36    22    23    1
    37    23    36    1
    38    23    37    1
    39    23    38    1
    40    24    25    1
    41    25    39    1
    42    25    40    1
    43    25    41    1
    44    11    42    1
@<TRIPOS>MOLECULE
ZINC03832242
 52 55 0 0 0
SMALL
USER_CHARGES

@<TRIPOS>ATOM
      1 C1         10.4948   16.0020   18.5685 C.ar    1  <0>1       -0.0616
      2 C2         10.0386   16.2573   17.2884 C.ar    1  <0>1       -0.0598
      3 C3          9.4926   15.2386   16.5323 C.ar    1  <0>1       -0.0378
      4 C4          9.4021   13.9571   17.0588 C.ar    1  <0>1        0.0481
      5 C5          9.8558   13.7051   18.3466 C.ar    1  <0>1       -0.0378
      6 C6         10.4065   14.7266   19.0955 C.ar    1  <0>1       -0.0598
      7 N1          8.8487   12.9215   16.2943 N.ar    1  <0>1       -0.2985
      8 C7          7.6607   12.9544   15.6284 C.ar    1  <0>1        0.1015
      9 N2          7.4594   11.8234   15.0173 N.ar    1  <0>1       -0.2353
     10 C8          8.5033   10.9858   15.2479 C.ar    1  <0>1        0.0928
     11 C9          9.4102   11.6762   16.0698 C.ar    1  <0>1        0.0735
     12 C10        10.5865   11.0624   16.4750 C.ar    1  <0>1       -0.0323
     13 C11        10.8646    9.7746   16.0696 C.ar    1  <0>1       -0.0179
     14 C12         9.9718    9.0843   15.2552 C.ar    1  <0>1        0.1226
     15 C13         8.7964    9.6808   14.8436 C.ar    1  <0>1        0.0075
     16 O1         10.2585    7.8144   14.8626 O.3     1  <0>1       -0.4919
     17 C14        11.4904    7.2556   15.3231 C.3     1  <0>1        0.0898
     18 C15        11.6378    5.8315   14.7832 C.3     1  <0>1       -0.0138
     19 C16        12.9568    5.2331   15.2762 C.3     1  <0>1       -0.0094
     20 C17        13.1041    3.8092   14.7362 C.3     1  <0>1       -0.0316
     21 C18        15.5203    3.9428   14.6282 C.3     1  <0>1       -0.0078
     22 C19        16.8151    3.3524   15.1927 C.3     1  <0>1        0.0878
     23 O2         16.8507    1.9485   14.9221 O.3     1  <0>1       -0.3693
     24 C20        15.7459    1.2275   15.4745 C.3     1  <0>1        0.0878
     25 C21        14.4402    1.7964   14.9128 C.3     1  <0>1       -0.0078
     26 H1         10.9215   16.8003   19.1578 H       1  <0>1        0.0618
     27 H2         10.1096   17.2544   16.8792 H       1  <0>1        0.0618
     28 H3          9.1367   15.4387   15.5323 H       1  <0>1        0.0638
     29 H4          9.7827   12.7102   18.7606 H       1  <0>1        0.0638
     30 H5         10.7636   14.5303   20.0957 H       1  <0>1        0.0618
     31 H6          6.9845   13.7965   15.6104 H       1  <0>1        0.1032
     32 H7         11.2831   11.5927   17.1073 H       1  <0>1        0.0640
     33 H8         11.7807    9.2982   16.3863 H       1  <0>1        0.0655
     34 H9          8.1068    9.1411   14.2116 H       1  <0>1        0.0676
     35 H10        12.3211    7.8661   14.9691 H       1  <0>1        0.0696
     36 H11        11.4944    7.2331   16.4128 H       1  <0>1        0.0696
     37 H12        10.8070    5.2210   15.1371 H       1  <0>1        0.0300
     38 H13        11.6338    5.8539   13.6934 H       1  <0>1        0.0300
     39 H14        13.7875    5.8437   14.9222 H       1  <0>1        0.0318
     40 H15        12.9607    5.2108   16.3659 H       1  <0>1        0.0318
     41 H16        12.2734    3.1986   15.0902 H       1  <0>1        0.0814
     42 H17        13.1002    3.8316   13.6465 H       1  <0>1        0.0814
     43 H18        15.5093    3.8264   13.5445 H       1  <0>1        0.0837
     44 H19        15.4620    5.0013   14.8818 H       1  <0>1        0.0837
     45 H20        16.8508    3.5165   16.2697 H       1  <0>1        0.0613
     46 H21        17.6711    3.8356   14.7217 H       1  <0>1        0.0613
     47 H22        15.7504    1.3299   16.5597 H       1  <0>1        0.0613
     48 H23        15.8285    0.1741   15.2073 H       1  <0>1        0.0613
     49 H24        13.5934    1.2883   15.3742 H       1  <0>1        0.0837
     50 H25        14.4120    1.6458   13.8336 H       1  <0>1        0.0837
     51 N3         14.3730    3.2373   15.2365 N.4     1  <0>1        0.2385
     52 H26        14.4121    3.3529   16.2560 H       1  <0>1        0.2035
@<TRIPOS>BOND
     1     1     6   ar
     2     1     2   ar
     3     1    26    1
     4     2     3   ar
     5     2    27    1
     6     3     4   ar
     7     3    28    1
     8     4     5   ar
     9     4     7    1
    10     5     6   ar
    11     5    29    1
    12     6    30    1
    13     7    11   ar
    14     7     8   ar
    15     8     9   ar
    16     8    31    1
    17     9    10   ar
    18    10    15   ar
    19    10    11   ar
    20    11    12   ar
    21    12    13   ar
    22    12    32    1
    23    13    14   ar
    24    13    33    1
    25    14    15   ar
    26    14    16    1
    27    15    34    1
    28    16    17    1
    29    17    18    1
    30    17    35    1
    31    17    36    1
    32    18    19    1
    33    18    37    1
    34    18    38    1
    35    19    20    1
    36    19    39    1
    37    19    40    1
    38    20    41    1
    39    20    42    1
    40    20    51    1
    41    21    22    1
    42    21    43    1
    43    21    44    1
    44    21    51    1
    45    22    23    1
    46    22    45    1
    47    22    46    1
    48    23    24    1
    49    24    25    1
    50    24    47    1
    51    24    48    1
    52    25    49    1
    53    25    50    1
    54    25    51    1
    55    51    52    1
@<TRIPOS>MOLECULE
ZINC03832243
 41 44 0 0 0
SMALL
USER_CHARGES

@<TRIPOS>ATOM
      1 C1         12.8744   11.8821   14.2180 C.3     1  <0>1        0.0167
      2 N1         11.4702   11.4655   14.1888 N.ar    1  <0>1       -0.2953
      3 C2         11.1464   10.1526   14.4211 C.ar    1  <0>1        0.1482
      4 C3          9.7981    9.7345   14.3960 C.ar    1  <0>1        0.0365
      5 C4          8.7691   10.6668   14.1316 C.ar    1  <0>1       -0.0367
      6 C5          9.1019   11.9749   13.9014 C.ar    1  <0>1        0.0474
      7 C6         10.5105   12.3741   13.9286 C.ar    1  <0>1        0.2603
      8 O1         10.8156   13.5348   13.7200 O.2     1  <0>1       -0.2670
      9 C7          8.0464   12.9764   13.6212 C.ar    1  <0>1       -0.0127
     10 C8          7.1074   13.2966   14.6012 C.ar    1  <0>1       -0.0539
     11 C9          6.1271   14.2304   14.3345 C.ar    1  <0>1       -0.0612
     12 C10         6.0750   14.8489   13.0981 C.ar    1  <0>1       -0.0617
     13 C11         7.0038   14.5354   12.1220 C.ar    1  <0>1       -0.0612
     14 C12         7.9883   13.6025   12.3765 C.ar    1  <0>1       -0.0539
     15 C13         9.5101    8.3829   14.6378 C.ar    1  <0>1        0.0418
     16 N2         10.5110    7.5569   14.8789 N.ar    1  <0>1       -0.2219
     17 C14        11.7681    7.9860   14.8946 C.ar    1  <0>1        0.2214
     18 N3         12.0892    9.2514   14.6723 N.ar    1  <0>1       -0.1961
     19 N4         12.7778    7.0787   15.1518 N.pl3   1  <0>1       -0.2836
     20 C15        12.4623    5.7627   15.5032 C.ar    1  <0>1        0.0336
     21 C16        11.3275    5.4972   16.2589 C.ar    1  <0>1       -0.0405
     22 C17        11.0156    4.1956   16.5993 C.ar    1  <0>1       -0.0600
     23 C18        11.8375    3.1585   16.1981 C.ar    1  <0>1       -0.0616
     24 C19        12.9714    3.4200   15.4510 C.ar    1  <0>1       -0.0600
     25 C20        13.2860    4.7187   15.1022 C.ar    1  <0>1       -0.0405
     26 H1         13.3022   11.7878   13.2199 H       1  <0>1        0.0457
     27 H2         12.9387   12.9200   14.5444 H       1  <0>1        0.0457
     28 H3         13.4271   11.2482   14.9115 H       1  <0>1        0.0457
     29 H4          7.7362   10.3522   14.1116 H       1  <0>1        0.0633
     30 H5          7.1500   12.8179   15.5684 H       1  <0>1        0.0624
     31 H6          5.3993   14.4792   15.0927 H       1  <0>1        0.0618
     32 H7          5.3059   15.5791   12.8940 H       1  <0>1        0.0618
     33 H8          6.9581   15.0215   11.1586 H       1  <0>1        0.0618
     34 H9          8.7123   13.3581   11.6134 H       1  <0>1        0.0624
     35 H10         8.4909    8.0257   14.6266 H       1  <0>1        0.0838
     36 H11        13.7056    7.3546   15.0886 H       1  <0>1        0.1550
     37 H12        10.6875    6.3072   16.5763 H       1  <0>1        0.0636
     38 H13        10.1312    3.9880   17.1834 H       1  <0>1        0.0618
     39 H14        11.5935    2.1418   16.4692 H       1  <0>1        0.0618
     40 H15        13.6114    2.6077   15.1396 H       1  <0>1        0.0618
     41 H16        14.1716    4.9223   14.5187 H       1  <0>1        0.0636
@<TRIPOS>BOND
     1     1     2    1
     2     1    26    1
     3     1    27    1
     4     1    28    1
     5     2     7   ar
     6     2     3   ar
     7     3    18   ar
     8     3     4   ar
     9     4     5   ar
    10     4    15   ar
    11     5     6   ar
    12     5    29    1
    13     6     7   ar
    14     6     9    1
    15     7     8    2
    16     9    14   ar
    17     9    10   ar
    18    10    11   ar
    19    10    30    1
    20    11    12   ar
    21    11    31    1
    22    12    13   ar
    23    12    32    1
    24    13    14   ar
    25    13    33    1
    26    14    34    1
    27    15    16   ar
    28    15    35    1
    29    16    17   ar
    30    17    18   ar
    31    17    19    1
    32    19    20    1
    33    19    36    1
    34    20    25   ar
    35    20    21   ar
    36    21    22   ar
    37    21    37    1
    38    22    23   ar
    39    22    38    1
    40    23    24   ar
    41    23    39    1
    42    24    25   ar
    43    24    40    1
    44    25    41    1
@<TRIPOS>MOLECULE
ZINC03832244
 52 55 0 0 0
SMALL
USER_CHARGES

@<TRIPOS>ATOM
      1 C1         13.4505   11.3955   12.8454 C.3     1  <0>1       -0.0380
      2 C2         12.2871   11.6708   13.7628 C.ar    1  <0>1       -0.0291
      3 C3         11.7595   12.9452   13.8449 C.ar    1  <0>1       -0.0553
      4 C4         10.6970   13.2032   14.6892 C.ar    1  <0>1       -0.0401
      5 C5         10.1512   12.1794   15.4544 C.ar    1  <0>1        0.0354
      6 C6         10.6748   10.8975   15.3700 C.ar    1  <0>1       -0.0190
      7 C7         11.7426   10.6418   14.5211 C.ar    1  <0>1        0.0383
      8 N1         12.2736    9.3514   14.4335 N.pl3   1  <0>1       -0.2833
      9 C8         12.1314    8.4704   15.4931 C.ar    1  <0>1        0.2200
     10 N2         11.6074    8.9067   16.6297 N.ar    1  <0>1       -0.2226
     11 C9         11.4555    8.0966   17.6650 C.ar    1  <0>1        0.0332
     12 C10        11.8511    6.7750   17.5542 C.ar    1  <0>1       -0.0174
     13 C11        12.4001    6.3439   16.3439 C.ar    1  <0>1        0.0775
     14 N3         12.5279    7.2162   15.3466 N.ar    1  <0>1       -0.2142
     15 C12        12.8395    4.9375   16.1751 C.ar    1  <0>1        0.0186
     16 C13        13.3890    4.5054   14.9643 C.ar    1  <0>1       -0.0497
     17 C14        13.7839    3.1831   14.8575 C.ar    1  <0>1       -0.0430
     18 C15        13.6239    2.3395   15.9419 C.ar    1  <0>1        0.0276
     19 N4         13.1021    2.7761   17.0719 N.ar    1  <0>1       -0.2626
     20 C16        12.7167    4.0268   17.2224 C.ar    1  <0>1        0.0367
     21 N5          9.0755   12.4414   16.3089 N.am    1  <0>1       -0.2813
     22 C17         8.9148   13.6732   16.8317 C.2     1  <0>1        0.2518
     23 O1          9.7551   14.5304   16.6380 O.2     1  <0>1       -0.2697
     24 C18         7.7193   13.9814   17.6390 C.ar    1  <0>1        0.0786
     25 C19         6.7483   13.0012   17.8594 C.ar    1  <0>1       -0.0461
     26 C20         5.6361   13.2943   18.6179 C.ar    1  <0>1       -0.0608
     27 C21         5.4704   14.5605   19.1556 C.ar    1  <0>1       -0.0583
     28 C22         6.4197   15.5398   18.9417 C.ar    1  <0>1       -0.0192
     29 C23         7.5480   15.2609   18.1846 C.ar    1  <0>1        0.1322
     30 O2          8.4811   16.2226   17.9729 O.3     1  <0>1       -0.4944
     31 C24         8.2386   17.5024   18.5603 C.3     1  <0>1        0.0788
     32 H1         13.0779   11.1122   11.8610 H       1  <0>1        0.0278
     33 H2         14.0640   12.2921   12.7575 H       1  <0>1        0.0278
     34 H3         14.0511   10.5829   13.2542 H       1  <0>1        0.0278
     35 H4         12.1816   13.7424   13.2511 H       1  <0>1        0.0621
     36 H5         10.2898   14.2013   14.7546 H       1  <0>1        0.0636
     37 H6         10.2526   10.1004   15.9638 H       1  <0>1        0.0655
     38 H7         12.7414    9.0730   13.6306 H       1  <0>1        0.1550
     39 H8         11.0269    8.4626   18.5863 H       1  <0>1        0.0831
     40 H9         11.7380    6.0929   18.3838 H       1  <0>1        0.0654
     41 H10        13.5021    5.1859   14.1333 H       1  <0>1        0.0625
     42 H11        14.2127    2.8142   13.9376 H       1  <0>1        0.0633
     43 H12        13.9313    1.3073   15.8622 H       1  <0>1        0.0829
     44 H13        12.2978    4.3480   18.1645 H       1  <0>1        0.0836
     45 H14         8.4452   11.7366   16.5253 H       1  <0>1        0.1551
     46 H15         6.8712   12.0141   17.4388 H       1  <0>1        0.0626
     47 H16         4.8878   12.5349   18.7905 H       1  <0>1        0.0618
     48 H17         4.5933   14.7828   19.7452 H       1  <0>1        0.0619
     49 H18         6.2835   16.5244   19.3642 H       1  <0>1        0.0654
     50 H19         7.3052   17.9096   18.1718 H       1  <0>1        0.0660
     51 H20         8.1666   17.3975   19.6429 H       1  <0>1        0.0660
     52 H21         9.0593   18.1764   18.3144 H       1  <0>1        0.0660
@<TRIPOS>BOND
     1     1     2    1
     2     1    32    1
     3     1    33    1
     4     1    34    1
     5     2     7   ar
     6     2     3   ar
     7     3     4   ar
     8     3    35    1
     9     4     5   ar
    10     4    36    1
    11     5     6   ar
    12     5    21    1
    13     6     7   ar
    14     6    37    1
    15     7     8    1
    16     8     9    1
    17     8    38    1
    18     9    14   ar
    19     9    10   ar
    20    10    11   ar
    21    11    12   ar
    22    11    39    1
    23    12    13   ar
    24    12    40    1
    25    13    14   ar
    26    13    15    1
    27    15    20   ar
    28    15    16   ar
    29    16    17   ar
    30    16    41    1
    31    17    18   ar
    32    17    42    1
    33    18    19   ar
    34    18    43    1
    35    19    20   ar
    36    20    44    1
    37    21    22   am
    38    21    45    1
    39    22    23    2
    40    22    24    1
    41    24    29   ar
    42    24    25   ar
    43    25    26   ar
    44    25    46    1
    45    26    27   ar
    46    26    47    1
    47    27    28   ar
    48    27    48    1
    49    28    29   ar
    50    28    49    1
    51    29    30    1
    52    30    31    1
    53    31    50    1
    54    31    51    1
    55    31    52    1
@<TRIPOS>MOLECULE
ZINC03832245
 34 36 0 0 0
SMALL
USER_CHARGES

@<TRIPOS>ATOM
      1 C1          7.9285   10.6229   22.2583 C.3     1  <0>1        0.0790
      2 O1          7.2164   11.8496   22.0850 O.3     1  <0>1       -0.4914
      3 C2          7.3165   12.4552   20.8719 C.ar    1  <0>1        0.1622
      4 C3          8.0742   11.8832   19.8922 C.ar    1  <0>1       -0.0071
      5 C4          8.1773   12.5090   18.6381 C.ar    1  <0>1        0.0046
      6 C5          8.9435   11.9437   17.6049 C.ar    1  <0>1       -0.0433
      7 C6          9.0041   12.6190   16.3940 C.ar    1  <0>1        0.0009
      8 C7          8.2998   13.8229   16.2374 C.ar    1  <0>1        0.0360
      9 N1          7.5868   14.3311   17.2104 N.ar    1  <0>1       -0.2543
     10 C8          7.4938   13.7294   18.4019 C.ar    1  <0>1        0.0747
     11 C9          6.7223   14.2920   19.4321 C.ar    1  <0>1        0.0097
     12 C10         6.6400   13.6624   20.6404 C.ar    1  <0>1        0.1635
     13 O2          5.8920   14.2122   21.6326 O.3     1  <0>1       -0.4914
     14 C11         5.2260   15.4416   21.3378 C.3     1  <0>1        0.0790
     15 C12         9.8023   12.0692   15.2714 C.ar    1  <0>1       -0.0136
     16 C13        10.5138   10.8742   15.4138 C.ar    1  <0>1       -0.0358
     17 C14        11.2485   10.4014   14.3461 C.ar    1  <0>1        0.0281
     18 N2         11.2843   11.0607   13.2038 N.ar    1  <0>1       -0.2632
     19 C15        10.6272   12.1911   13.0279 C.ar    1  <0>1        0.0281
     20 C16         9.8685   12.7347   14.0437 C.ar    1  <0>1       -0.0358
     21 H1          7.5715    9.8900   21.5348 H       1  <0>1        0.0660
     22 H2          8.9936   10.7963   22.1046 H       1  <0>1        0.0660
     23 H3          7.7637   10.2468   23.2681 H       1  <0>1        0.0660
     24 H4          8.5921   10.9540   20.0793 H       1  <0>1        0.0662
     25 H5          9.4728   11.0135   17.7501 H       1  <0>1        0.0631
     26 H6          8.3472   14.3422   15.2917 H       1  <0>1        0.0836
     27 H7          6.1954   15.2204   19.2686 H       1  <0>1        0.0677
     28 H8          5.9631   16.1995   21.0725 H       1  <0>1        0.0660
     29 H9          4.5412   15.2928   20.5029 H       1  <0>1        0.0660
     30 H10         4.6659   15.7704   22.2131 H       1  <0>1        0.0660
     31 H11        10.4893   10.3296   16.3461 H       1  <0>1        0.0639
     32 H12        11.8018    9.4793   14.4467 H       1  <0>1        0.0830
     33 H13        10.6844   12.6980   12.0759 H       1  <0>1        0.0830
     34 H14         9.3331   13.6605   13.8928 H       1  <0>1        0.0639
@<TRIPOS>BOND
     1     1     2    1
     2     1    21    1
     3     1    22    1
     4     1    23    1
     5     2     3    1
     6     3    12   ar
     7     3     4   ar
     8     4     5   ar
     9     4    24    1
    10     5    10   ar
    11     5     6   ar
    12     6     7   ar
    13     6    25    1
    14     7     8   ar
    15     7    15    1
    16     8     9   ar
    17     8    26    1
    18     9    10   ar
    19    10    11   ar
    20    11    12   ar
    21    11    27    1
    22    12    13    1
    23    13    14    1
    24    14    28    1
    25    14    29    1
    26    14    30    1
    27    15    20   ar
    28    15    16   ar
    29    16    17   ar
    30    16    31    1
    31    17    18   ar
    32    17    32    1
    33    18    19   ar
    34    19    20   ar
    35    19    33    1
    36    20    34    1
@<TRIPOS>MOLECULE
ZINC03832246
 26 28 0 0 0
SMALL
USER_CHARGES

@<TRIPOS>ATOM
      1 C1          9.8746   12.7298   14.0364 C.ar    1  <0>1       -0.0512
      2 C2         10.6226   12.1957   13.0321 C.ar    1  <0>1       -0.0427
      3 C3         11.3178   11.0011   13.2166 C.ar    1  <0>1        0.0430
      4 C4         11.2680   10.3352   14.4044 C.ar    1  <0>1       -0.0174
      5 C5         10.5065   10.8546   15.4647 C.ar    1  <0>1        0.0724
      6 C6          9.8009   12.0695   15.2744 C.ar    1  <0>1        0.0010
      7 C7          9.0336   12.5879   16.3321 C.ar    1  <0>1       -0.0434
      8 C8          9.0124   11.8836   17.5270 C.ar    1  <0>1        0.0009
      9 C9          9.7380   10.6866   17.6377 C.ar    1  <0>1        0.0360
     10 N1         10.4426   10.2178   16.6395 N.ar    1  <0>1       -0.2543
     11 C10         8.2239   12.3882   18.6776 C.ar    1  <0>1       -0.0136
     12 C11         7.5010   13.5812   18.5847 C.ar    1  <0>1       -0.0358
     13 C12         6.7856   14.0172   19.6808 C.ar    1  <0>1        0.0281
     14 N2          6.7783   13.3248   20.8037 N.ar    1  <0>1       -0.2632
     15 C13         7.4465   12.1947   20.9330 C.ar    1  <0>1        0.0281
     16 C14         8.1880   11.6868   19.8863 C.ar    1  <0>1       -0.0358
     17 Cl1        12.2613   10.3518   11.9122 Cl      1  <0>1       -0.0835
     18 H1          9.3403   13.6556   13.8821 H       1  <0>1        0.0625
     19 H2         10.6784   12.7037   12.0807 H       1  <0>1        0.0632
     20 H3         11.8120    9.4107   14.5302 H       1  <0>1        0.0653
     21 H4          8.4806   13.5086   16.2192 H       1  <0>1        0.0631
     22 H5          9.7144   10.1401   18.5688 H       1  <0>1        0.0836
     23 H6          7.5030   14.1532   17.6687 H       1  <0>1        0.0639
     24 H7          6.2238   14.9375   19.6186 H       1  <0>1        0.0830
     25 H8          7.4130   11.6601   21.8708 H       1  <0>1        0.0830
     26 H9          8.7324   10.7608   19.9989 H       1  <0>1        0.0639
@<TRIPOS>BOND
     1     1     6   ar
     2     1     2   ar
     3     1    18    1
     4     2     3   ar
     5     2    19    1
     6     3     4   ar
     7     3    17    1
     8     4     5   ar
     9     4    20    1
    10     5    10   ar
    11     5     6   ar
    12     6     7   ar
    13     7     8   ar
    14     7    21    1
    15     8     9   ar
    16     8    11    1
    17     9    10   ar
    18     9    22    1
    19    11    16   ar
    20    11    12   ar
    21    12    13   ar
    22    12    23    1
    23    13    14   ar
    24    13    24    1
    25    14    15   ar
    26    15    16   ar
    27    15    25    1
    28    16    26    1
@<TRIPOS>MOLECULE
ZINC03832247
 34 36 0 0 0
SMALL
USER_CHARGES

@<TRIPOS>ATOM
      1 C1          7.9461   10.6293   22.2616 C.3     1  <0>1        0.0790
      2 O1          7.2297   11.8532   22.0868 O.3     1  <0>1       -0.4914
      3 C2          7.3236   12.4552   20.8715 C.ar    1  <0>1        0.1622
      4 C3          8.0791   11.8820   19.8908 C.ar    1  <0>1       -0.0071
      5 C4          8.1767   12.5045   18.6346 C.ar    1  <0>1        0.0047
      6 C5          8.9463   11.9417   17.6023 C.ar    1  <0>1       -0.0432
      7 C6          9.0019   12.6141   16.3900 C.ar    1  <0>1        0.0023
      8 C7          8.2904   13.8133   16.2309 C.ar    1  <0>1        0.0360
      9 N1          7.5781   14.3217   17.2045 N.ar    1  <0>1       -0.2543
     10 C8          7.4894   13.7225   18.3974 C.ar    1  <0>1        0.0747
     11 C9          6.7200   14.2862   19.4286 C.ar    1  <0>1        0.0097
     12 C10         6.6430   13.6599   20.6388 C.ar    1  <0>1        0.1635
     13 O2          5.8966   14.2103   21.6319 O.3     1  <0>1       -0.4914
     14 C11         5.2267   15.4374   21.3359 C.3     1  <0>1        0.0790
     15 C12         9.8046   12.0673   15.2686 C.ar    1  <0>1        0.0017
     16 C13         9.8651   12.7395   14.0445 C.ar    1  <0>1       -0.0511
     17 C14        10.6283   12.1882   13.0299 C.ar    1  <0>1       -0.0430
     18 C15        11.3004   11.0010   13.2576 C.ar    1  <0>1        0.0276
     19 N2         11.2247   10.3896   14.4238 N.ar    1  <0>1       -0.2627
     20 C16        10.5151   10.8785   15.4204 C.ar    1  <0>1        0.0353
     21 H1          7.7861   10.2558   23.2731 H       1  <0>1        0.0660
     22 H2          7.5887    9.8930   21.5416 H       1  <0>1        0.0660
     23 H3          9.0102   10.8053   22.1034 H       1  <0>1        0.0660
     24 H4          8.5999   10.9548   20.0788 H       1  <0>1        0.0662
     25 H5          9.4823   11.0157   17.7498 H       1  <0>1        0.0631
     26 H6          8.3345   14.3308   15.2840 H       1  <0>1        0.0836
     27 H7          6.1905   15.2131   19.2643 H       1  <0>1        0.0677
     28 H8          4.6683   15.7670   22.2120 H       1  <0>1        0.0660
     29 H9          5.9611   16.1965   21.0664 H       1  <0>1        0.0660
     30 H10         4.5398   15.2847   20.5034 H       1  <0>1        0.0660
     31 H11         9.3295   13.6653   13.8940 H       1  <0>1        0.0625
     32 H12        10.6985   12.6800   12.0709 H       1  <0>1        0.0633
     33 H13        11.8969   10.5680   12.4682 H       1  <0>1        0.0829
     34 H14        10.4806   10.3509   16.3621 H       1  <0>1        0.0836
@<TRIPOS>BOND
     1     1     2    1
     2     1    21    1
     3     1    22    1
     4     1    23    1
     5     2     3    1
     6     3    12   ar
     7     3     4   ar
     8     4     5   ar
     9     4    24    1
    10     5    10   ar
    11     5     6   ar
    12     6     7   ar
    13     6    25    1
    14     7     8   ar
    15     7    15    1
    16     8     9   ar
    17     8    26    1
    18     9    10   ar
    19    10    11   ar
    20    11    12   ar
    21    11    27    1
    22    12    13    1
    23    13    14    1
    24    14    28    1
    25    14    29    1
    26    14    30    1
    27    15    20   ar
    28    15    16   ar
    29    16    17   ar
    30    16    31    1
    31    17    18   ar
    32    17    32    1
    33    18    19   ar
    34    18    33    1
    35    19    20   ar
    36    20    34    1
@<TRIPOS>MOLECULE
ZINC03832248
 42 44 0 0 0
SMALL
USER_CHARGES

@<TRIPOS>ATOM
      1 C1          6.1480   15.1843   21.5945 C.3     1  <0>1       -0.0362
      2 C2          6.2534   15.1779   20.0911 C.ar    1  <0>1       -0.0082
      3 C3          7.2478   14.4486   19.4733 C.ar    1  <0>1       -0.0476
      4 C4          7.3477   14.4475   18.0831 C.ar    1  <0>1       -0.0159
      5 C5          6.4354   15.1757   17.3209 C.ar    1  <0>1       -0.0505
      6 C6          5.4405   15.8988   17.9442 C.ar    1  <0>1       -0.0191
      7 C7          5.3464   15.9019   19.3295 C.ar    1  <0>1        0.1230
      8 O1          4.3645   16.6149   19.9408 O.3     1  <0>1       -0.4948
      9 C8          3.4653   17.3366   19.0966 C.3     1  <0>1        0.0788
     10 C9          8.4188   13.6680   17.4157 C.ar    1  <0>1        0.0008
     11 C10         8.5220   13.6647   16.0316 C.ar    1  <0>1       -0.0433
     12 C11         9.5503   12.9058   15.4485 C.ar    1  <0>1        0.0046
     13 C12         9.7111   12.8505   14.0530 C.ar    1  <0>1       -0.0071
     14 C13        10.7199   12.1039   13.5189 C.ar    1  <0>1        0.1622
     15 C14        11.5990   11.3903   14.3483 C.ar    1  <0>1        0.1635
     16 C15        11.4666   11.4257   15.7058 C.ar    1  <0>1        0.0097
     17 C16        10.4377   12.1853   16.2884 C.ar    1  <0>1        0.0747
     18 N1         10.2910   12.2326   17.6170 N.ar    1  <0>1       -0.2543
     19 C17         9.3389   12.9339   18.1794 C.ar    1  <0>1        0.0360
     20 O2         12.5958   10.6535   13.7914 O.3     1  <0>1       -0.4914
     21 C18        13.4588    9.9485   14.6860 C.3     1  <0>1        0.0790
     22 O3         10.8757   12.0508   12.1695 O.3     1  <0>1       -0.4914
     23 C19         9.9492   12.7988   11.3796 C.3     1  <0>1        0.0790
     24 H1          5.5026   14.3672   21.9169 H       1  <0>1        0.0279
     25 H2          7.1397   15.0570   22.0287 H       1  <0>1        0.0279
     26 H3          5.7256   16.1332   21.9250 H       1  <0>1        0.0279
     27 H4          7.9506   13.8822   20.0663 H       1  <0>1        0.0627
     28 H5          6.5076   15.1732   16.2433 H       1  <0>1        0.0625
     29 H6          4.7335   16.4632   17.3542 H       1  <0>1        0.0654
     30 H7          2.7326   17.8607   19.7102 H       1  <0>1        0.0660
     31 H8          4.0253   18.0590   18.5027 H       1  <0>1        0.0660
     32 H9          2.9522   16.6406   18.4331 H       1  <0>1        0.0660
     33 H10         7.8293   14.2248   15.4210 H       1  <0>1        0.0631
     34 H11         9.0395   13.3966   13.4073 H       1  <0>1        0.0662
     35 H12        12.1505   10.8711   16.3311 H       1  <0>1        0.0677
     36 H13         9.2572   12.9437   19.2562 H       1  <0>1        0.0836
     37 H14        14.2080    9.4022   14.1131 H       1  <0>1        0.0660
     38 H15        13.9543   10.6587   15.3481 H       1  <0>1        0.0660
     39 H16        12.8723    9.2469   15.2793 H       1  <0>1        0.0660
     40 H17        10.1853   12.6698   10.3233 H       1  <0>1        0.0660
     41 H18         8.9373   12.4424   11.5717 H       1  <0>1        0.0660
     42 H19        10.0183   13.8547   11.6411 H       1  <0>1        0.0660
@<TRIPOS>BOND
     1     1     2    1
     2     1    24    1
     3     1    25    1
     4     1    26    1
     5     2     7   ar
     6     2     3   ar
     7     3     4   ar
     8     3    27    1
     9     4     5   ar
    10     4    10    1
    11     5     6   ar
    12     5    28    1
    13     6     7   ar
    14     6    29    1
    15     7     8    1
    16     8     9    1
    17     9    30    1
    18     9    31    1
    19     9    32    1
    20    10    19   ar
    21    10    11   ar
    22    11    12   ar
    23    11    33    1
    24    12    17   ar
    25    12    13   ar
    26    13    14   ar
    27    13    34    1
    28    14    15   ar
    29    14    22    1
    30    15    16   ar
    31    15    20    1
    32    16    17   ar
    33    16    35    1
    34    17    18   ar
    35    18    19   ar
    36    19    36    1
    37    20    21    1
    38    21    37    1
    39    21    38    1
    40    21    39    1
    41    22    23    1
    42    23    40    1
    43    23    41    1
    44    23    42    1
@<TRIPOS>MOLECULE
ZINC03832249
 37 39 0 0 0
SMALL
USER_CHARGES

@<TRIPOS>ATOM
      1 C1         11.1372   12.1712   14.4788 C.ar    1  <0>1       -0.0616
      2 C2         11.6335   11.4303   15.5357 C.ar    1  <0>1       -0.0598
      3 C3         11.3293   10.0873   15.6424 C.ar    1  <0>1       -0.0378
      4 C4         10.5247    9.4811   14.6869 C.ar    1  <0>1        0.0481
      5 C5         10.0276   10.2279   13.6271 C.ar    1  <0>1       -0.0378
      6 C6         10.3349   11.5706   13.5261 C.ar    1  <0>1       -0.0598
      7 N1         10.2151    8.1186   14.7918 N.ar    1  <0>1       -0.2985
      8 C7          8.9733    7.5638   14.7141 C.ar    1  <0>1        0.1015
      9 N2          9.0514    6.2724   14.8537 N.ar    1  <0>1       -0.2353
     10 C8         10.3477    5.9081   15.0307 C.ar    1  <0>1        0.0928
     11 C9         11.1146    7.0848   14.9879 C.ar    1  <0>1        0.0735
     12 C10        12.4912    7.0230   15.1490 C.ar    1  <0>1       -0.0323
     13 C11        13.1067    5.8044   15.3389 C.ar    1  <0>1       -0.0179
     14 C12        12.3548    4.6338   15.3770 C.ar    1  <0>1        0.1228
     15 C13        10.9832    4.6790   15.2243 C.ar    1  <0>1        0.0075
     16 O1         12.9747    3.4384   15.5654 O.3     1  <0>1       -0.4893
     17 C14        14.3955    3.4610   15.7166 C.3     1  <0>1        0.1175
     18 C15        14.9099    2.0341   15.9172 C.3     1  <0>1        0.1120
     19 H1         14.5704    1.4064   15.0933 H       1  <0>1        0.0650
     20 C16        16.4394    2.0439   15.9543 C.3     1  <0>1        0.0733
     21 O2         16.9227    0.7010   16.0246 O.3     1  <0>1       -0.3923
     22 O3         14.4067    1.5153   17.1500 O.3     1  <0>1       -0.3861
     23 H2         11.3765   13.2212   14.3976 H       1  <0>1        0.0618
     24 H3         12.2632   11.9012   16.2760 H       1  <0>1        0.0618
     25 H4         11.7174    9.5090   16.4679 H       1  <0>1        0.0638
     26 H5          9.4015    9.7591   12.8823 H       1  <0>1        0.0638
     27 H6          9.9486   12.1519   12.7020 H       1  <0>1        0.0618
     28 H7          8.0576    8.1152   14.5594 H       1  <0>1        0.1032
     29 H8         13.0801    7.9278   15.1210 H       1  <0>1        0.0640
     30 H9         14.1790    5.7577   15.4591 H       1  <0>1        0.0655
     31 H10        10.4040    3.7678   15.2539 H       1  <0>1        0.0676
     32 H11        14.8493    3.8886   14.8226 H       1  <0>1        0.0723
     33 H12        14.6590    4.0675   16.5832 H       1  <0>1        0.0723
     34 H13        16.8217    2.5209   15.0518 H       1  <0>1        0.0584
     35 H14        16.7781    2.5981   16.8296 H       1  <0>1        0.0584
     36 H15        17.8868    0.6308   16.0512 H       1  <0>1        0.2095
     37 H16        14.6701    2.0255   17.9281 H       1  <0>1        0.2100
@<TRIPOS>BOND
     1     1     6   ar
     2     1     2   ar
     3     1    23    1
     4     2     3   ar
     5     2    24    1
     6     3     4   ar
     7     3    25    1
     8     4     5   ar
     9     4     7    1
    10     5     6   ar
    11     5    26    1
    12     6    27    1
    13     7    11   ar
    14     7     8   ar
    15     8     9   ar
    16     8    28    1
    17     9    10   ar
    18    10    15   ar
    19    10    11   ar
    20    11    12   ar
    21    12    13   ar
    22    12    29    1
    23    13    14   ar
    24    13    30    1
    25    14    15   ar
    26    14    16    1
    27    15    31    1
    28    16    17    1
    29    17    18    1
    30    17    32    1
    31    17    33    1
    32    18    19    1
    33    18    20    1
    34    18    22    1
    35    20    21    1
    36    20    34    1
    37    20    35    1
    38    21    36    1
    39    22    37    1
@<TRIPOS>MOLECULE
ZINC03832250
 40 43 0 0 0
SMALL
USER_CHARGES

@<TRIPOS>ATOM
      1 C1         12.8741   11.8822   14.2189 C.3     1  <0>1        0.0167
      2 N1         11.4699   11.4656   14.1891 N.ar    1  <0>1       -0.2953
      3 C2         11.1462   10.1526   14.4210 C.ar    1  <0>1        0.1482
      4 C3          9.7979    9.7346   14.3959 C.ar    1  <0>1        0.0365
      5 C4          8.7689   10.6670   14.1314 C.ar    1  <0>1       -0.0367
      6 C5          9.1016   11.9750   13.9012 C.ar    1  <0>1        0.0474
      7 C6         10.5104   12.3742   13.9284 C.ar    1  <0>1        0.2603
      8 O1         10.8155   13.5348   13.7194 O.2     1  <0>1       -0.2670
      9 C7          8.0462   12.9765   13.6210 C.ar    1  <0>1       -0.0127
     10 C8          7.1072   13.2967   14.6009 C.ar    1  <0>1       -0.0539
     11 C9          6.1270   14.2306   14.3343 C.ar    1  <0>1       -0.0612
     12 C10         6.0745   14.8487   13.0977 C.ar    1  <0>1       -0.0617
     13 C11         7.0034   14.5351   12.1215 C.ar    1  <0>1       -0.0612
     14 C12         7.9884   13.6029   12.3764 C.ar    1  <0>1       -0.0539
     15 C13         9.5099    8.3830   14.6377 C.ar    1  <0>1        0.0418
     16 N2         10.5109    7.5571   14.8788 N.ar    1  <0>1       -0.2219
     17 C14        11.7680    7.9862   14.8945 C.ar    1  <0>1        0.2214
     18 N3         12.0890    9.2514   14.6723 N.ar    1  <0>1       -0.1961
     19 N4         12.7781    7.0784   15.1519 N.pl3   1  <0>1       -0.2835
     20 C15        12.4636    5.7666   15.5020 C.ar    1  <0>1        0.0364
     21 C16        11.3204    5.4797   16.2472 C.ar    1  <0>1       -0.0223
     22 C17        11.0422    4.1678   16.5692 C.ar    1  <0>1        0.0293
     23 N5         11.8469    3.1928   16.1899 N.ar    1  <0>1       -0.2631
     24 C18        12.9405    3.4240   15.4883 C.ar    1  <0>1        0.0293
     25 C19        13.2869    4.7076   15.1213 C.ar    1  <0>1       -0.0223
     26 H1         13.3022   11.7884   13.2209 H       1  <0>1        0.0457
     27 H2         12.9383   12.9202   14.5456 H       1  <0>1        0.0457
     28 H3         13.4266   11.2482   14.9123 H       1  <0>1        0.0457
     29 H4          7.7360   10.3524   14.1114 H       1  <0>1        0.0633
     30 H5          7.1498   12.8181   15.5682 H       1  <0>1        0.0624
     31 H6          5.3994   14.4797   15.0925 H       1  <0>1        0.0618
     32 H7          5.3054   15.5787   12.8935 H       1  <0>1        0.0618
     33 H8          6.9574   15.0207   11.1580 H       1  <0>1        0.0618
     34 H9          8.7131   13.3592   11.6137 H       1  <0>1        0.0624
     35 H10         8.4908    8.0258   14.6264 H       1  <0>1        0.0838
     36 H11        13.7059    7.3544   15.0888 H       1  <0>1        0.1550
     37 H12        10.6602    6.2733   16.5647 H       1  <0>1        0.0651
     38 H13        10.1570    3.9358   17.1429 H       1  <0>1        0.0830
     39 H14        13.5724    2.5977   15.1980 H       1  <0>1        0.0830
     40 H15        14.1835    4.8900   14.5473 H       1  <0>1        0.0651
@<TRIPOS>BOND
     1     1     2    1
     2     1    26    1
     3     1    27    1
     4     1    28    1
     5     2     7   ar
     6     2     3   ar
     7     3    18   ar
     8     3     4   ar
     9     4     5   ar
    10     4    15   ar
    11     5     6   ar
    12     5    29    1
    13     6     7   ar
    14     6     9    1
    15     7     8    2
    16     9    14   ar
    17     9    10   ar
    18    10    11   ar
    19    10    30    1
    20    11    12   ar
    21    11    31    1
    22    12    13   ar
    23    12    32    1
    24    13    14   ar
    25    13    33    1
    26    14    34    1
    27    15    16   ar
    28    15    35    1
    29    16    17   ar
    30    17    18   ar
    31    17    19    1
    32    19    20    1
    33    19    36    1
    34    20    25   ar
    35    20    21   ar
    36    21    22   ar
    37    21    37    1
    38    22    23   ar
    39    22    38    1
    40    23    24   ar
    41    24    25   ar
    42    24    39    1
    43    25    40    1
@<TRIPOS>MOLECULE
ZINC03832251
 34 37 0 0 0
SMALL
USER_CHARGES

@<TRIPOS>ATOM
      1 C1          8.2370   13.9455   19.4991 C.ar    1  <0>1       -0.0616
      2 C2          8.8835   14.6174   18.4780 C.ar    1  <0>1       -0.0598
      3 C3          9.3511   13.9225   17.3797 C.ar    1  <0>1       -0.0378
      4 C4          9.1714   12.5479   17.3017 C.ar    1  <0>1        0.0481
      5 C5          8.5172   11.8769   18.3262 C.ar    1  <0>1       -0.0378
      6 C6          8.0570   12.5765   19.4246 C.ar    1  <0>1       -0.0598
      7 N1          9.6441   11.8402   16.1886 N.ar    1  <0>1       -0.2985
      8 C7          9.4240   12.1506   14.8805 C.ar    1  <0>1        0.1015
      9 N2         10.0094   11.2805   14.1102 N.ar    1  <0>1       -0.2353
     10 C8         10.6460   10.3513   14.8693 C.ar    1  <0>1        0.0928
     11 C9         10.4219   10.6953   16.2131 C.ar    1  <0>1        0.0735
     12 C10        10.9579    9.9163   17.2282 C.ar    1  <0>1       -0.0323
     13 C11        11.7105    8.8043   16.9165 C.ar    1  <0>1       -0.0179
     14 C12        11.9369    8.4569   15.5879 C.ar    1  <0>1        0.1228
     15 C13        11.4152    9.2251   14.5660 C.ar    1  <0>1        0.0075
     16 O1         12.6811    7.3574   15.2944 O.3     1  <0>1       -0.4893
     17 C14        13.1966    6.6095   16.3976 C.3     1  <0>1        0.1178
     18 C15        14.0015    5.4182   15.8744 C.3     1  <0>1        0.1159
     19 H1         13.6979    5.0330   14.9010 H       1  <0>1        0.0653
     20 C16        14.5441    4.4193   16.8986 C.3     1  <0>1        0.0776
     21 O2         15.3874    5.3494   16.2160 O.3     1  <0>1       -0.3683
     22 H2          7.8723   14.4910   20.3569 H       1  <0>1        0.0618
     23 H3          9.0227   15.6867   18.5390 H       1  <0>1        0.0618
     24 H4          9.8562   14.4477   16.5826 H       1  <0>1        0.0638
     25 H5          8.3723   10.8083   18.2664 H       1  <0>1        0.0638
     26 H6          7.5523   12.0544   20.2240 H       1  <0>1        0.0618
     27 H7          8.8472   12.9951   14.5335 H       1  <0>1        0.1032
     28 H8         10.7861   10.1807   18.2611 H       1  <0>1        0.0640
     29 H9         12.1272    8.1991   17.7080 H       1  <0>1        0.0655
     30 H10        11.5976    8.9542   13.5365 H       1  <0>1        0.0676
     31 H11        13.8428    7.2484   16.9994 H       1  <0>1        0.0723
     32 H12        12.3701    6.2488   17.0098 H       1  <0>1        0.0723
     33 H13        14.3308    4.6050   17.9513 H       1  <0>1        0.0587
     34 H14        14.6015    3.3713   16.6048 H       1  <0>1        0.0587
@<TRIPOS>BOND
     1     1     6   ar
     2     1     2   ar
     3     1    22    1
     4     2     3   ar
     5     2    23    1
     6     3     4   ar
     7     3    24    1
     8     4     5   ar
     9     4     7    1
    10     5     6   ar
    11     5    25    1
    12     6    26    1
    13     7    11   ar
    14     7     8   ar
    15     8     9   ar
    16     8    27    1
    17     9    10   ar
    18    10    15   ar
    19    10    11   ar
    20    11    12   ar
    21    12    13   ar
    22    12    28    1
    23    13    14   ar
    24    13    29    1
    25    14    15   ar
    26    14    16    1
    27    15    30    1
    28    16    17    1
    29    17    18    1
    30    17    31    1
    31    17    32    1
    32    18    19    1
    33    18    21    1
    34    18    20    1
    35    20    21    1
    36    20    33    1
    37    20    34    1
@<TRIPOS>MOLECULE
ZINC03832252
 33 35 0 0 0
SMALL
USER_CHARGES

@<TRIPOS>ATOM
      1 C1         11.7877   15.2840   13.8682 C.3     1  <0>1        0.0788
      2 O1         11.3482   14.5114   14.9872 O.3     1  <0>1       -0.4947
      3 C2         11.5379   13.1666   14.9215 C.ar    1  <0>1        0.1276
      4 C3         12.1323   12.6112   13.8058 C.ar    1  <0>1        0.0079
      5 C4         12.3265   11.2291   13.7398 C.ar    1  <0>1        0.0928
      6 C5         11.9136   10.4199   14.8119 C.ar    1  <0>1        0.0739
      7 C6         11.3176   10.9935   15.9257 C.ar    1  <0>1       -0.0269
      8 C7         11.1368   12.3590   15.9817 C.ar    1  <0>1        0.0215
      9 C8         10.4954   12.9803   17.1956 C.3     1  <0>1        0.0727
     10 O2         10.1737   11.9577   18.1404 O.3     1  <0>1       -0.3903
     11 N1         12.2353    9.1216   14.4551 N.ar    1  <0>1       -0.2985
     12 C9         12.8133    9.1734   13.2226 C.ar    1  <0>1        0.1015
     13 N2         12.8664   10.4048   12.8053 N.ar    1  <0>1       -0.2353
     14 C10        12.0081    7.9692   15.2189 C.ar    1  <0>1        0.0481
     15 C11        12.4125    7.9235   16.5464 C.ar    1  <0>1       -0.0378
     16 C12        12.1823    6.7879   17.2981 C.ar    1  <0>1       -0.0598
     17 C13        11.5602    5.6931   16.7268 C.ar    1  <0>1       -0.0616
     18 C14        11.1610    5.7337   15.4035 C.ar    1  <0>1       -0.0598
     19 C15        11.3832    6.8684   14.6481 C.ar    1  <0>1       -0.0378
     20 H1         11.2608   14.9573   12.9717 H       1  <0>1        0.0660
     21 H2         12.8600   15.1458   13.7301 H       1  <0>1        0.0660
     22 H3         11.5775   16.3381   14.0495 H       1  <0>1        0.0660
     23 H4         12.4462   13.2424   12.9877 H       1  <0>1        0.0676
     24 H5         11.0002   10.3717   16.7496 H       1  <0>1        0.0643
     25 H6         11.1877   13.6894   17.6494 H       1  <0>1        0.0608
     26 H7          9.5847   13.5006   16.8991 H       1  <0>1        0.0608
     27 H8          9.7566   12.2860   18.9487 H       1  <0>1        0.2098
     28 H9         13.1751    8.3174   12.6723 H       1  <0>1        0.1032
     29 H10        12.9023    8.7767   16.9919 H       1  <0>1        0.0638
     30 H11        12.4929    6.7532   18.3319 H       1  <0>1        0.0618
     31 H12        11.3853    4.8046   17.3154 H       1  <0>1        0.0618
     32 H13        10.6748    4.8772   14.9602 H       1  <0>1        0.0618
     33 H14        11.0710    6.8996   13.6147 H       1  <0>1        0.0638
@<TRIPOS>BOND
     1     1     2    1
     2     1    20    1
     3     1    21    1
     4     1    22    1
     5     2     3    1
     6     3     8   ar
     7     3     4   ar
     8     4     5   ar
     9     4    23    1
    10     5    13   ar
    11     5     6   ar
    12     6     7   ar
    13     6    11   ar
    14     7     8   ar
    15     7    24    1
    16     8     9    1
    17     9    10    1
    18     9    25    1
    19     9    26    1
    20    10    27    1
    21    11    12   ar
    22    11    14    1
    23    12    13   ar
    24    12    28    1
    25    14    19   ar
    26    14    15   ar
    27    15    16   ar
    28    15    29    1
    29    16    17   ar
    30    16    30    1
    31    17    18   ar
    32    17    31    1
    33    18    19   ar
    34    18    32    1
    35    19    33    1
@<TRIPOS>MOLECULE
ZINC03832253
 30 32 0 0 0
SMALL
USER_CHARGES

@<TRIPOS>ATOM
      1 C1          5.1008   15.4599   21.7150 C.3     1  <0>1        0.0788
      2 O1          5.9947   14.4702   21.2016 O.3     1  <0>1       -0.4951
      3 C2          6.3807   14.6007   19.9052 C.ar    1  <0>1        0.1208
      4 C3          5.8999   15.6713   19.1448 C.ar    1  <0>1       -0.0179
      5 C4          6.2669   15.8287   17.8449 C.ar    1  <0>1       -0.0323
      6 C5          7.1438   14.9054   17.2479 C.ar    1  <0>1        0.0712
      7 C6          7.6317   13.8200   18.0188 C.ar    1  <0>1        0.0044
      8 C7          7.2339   13.6843   19.3589 C.ar    1  <0>1       -0.0108
      9 C8          8.5082   12.8966   17.4226 C.ar    1  <0>1       -0.0433
     10 C9          8.8570   13.0942   16.0945 C.ar    1  <0>1        0.0009
     11 C10         8.3317   14.1938   15.3978 C.ar    1  <0>1        0.0360
     12 N1          7.5126   15.0395   15.9694 N.ar    1  <0>1       -0.2544
     13 C11         9.7779   12.1503   15.4156 C.ar    1  <0>1       -0.0136
     14 C12        10.3133   11.0537   16.0976 C.ar    1  <0>1       -0.0358
     15 C13        11.1620   10.1974   15.4266 C.ar    1  <0>1        0.0281
     16 N2         11.4772   10.4089   14.1631 N.ar    1  <0>1       -0.2632
     17 C14        10.9981   11.4341   13.4850 C.ar    1  <0>1        0.0281
     18 C15        10.1387   12.3360   14.0779 C.ar    1  <0>1       -0.0358
     19 H1          4.1792   15.4542   21.1331 H       1  <0>1        0.0660
     20 H2          4.8734   15.2381   22.7578 H       1  <0>1        0.0660
     21 H3          5.5681   16.4423   21.6461 H       1  <0>1        0.0660
     22 H4          5.2262   16.3840   19.5970 H       1  <0>1        0.0655
     23 H5          5.8856   16.6609   17.2719 H       1  <0>1        0.0640
     24 H6          7.6003   12.8610   19.9539 H       1  <0>1        0.0661
     25 H7          8.8984   12.0590   17.9816 H       1  <0>1        0.0631
     26 H8          8.6063   14.3429   14.3640 H       1  <0>1        0.0836
     27 H9         10.0631   10.8771   17.1333 H       1  <0>1        0.0639
     28 H10        11.5773    9.3452   15.9440 H       1  <0>1        0.0830
     29 H11        11.2825   11.5693   12.4519 H       1  <0>1        0.0830
     30 H12         9.7503   13.1731   13.5167 H       1  <0>1        0.0639
@<TRIPOS>BOND
     1     1     2    1
     2     1    19    1
     3     1    20    1
     4     1    21    1
     5     2     3    1
     6     3     8   ar
     7     3     4   ar
     8     4     5   ar
     9     4    22    1
    10     5     6   ar
    11     5    23    1
    12     6    12   ar
    13     6     7   ar
    14     7     8   ar
    15     7     9   ar
    16     8    24    1
    17     9    10   ar
    18     9    25    1
    19    10    11   ar
    20    10    13    1
    21    11    12   ar
    22    11    26    1
    23    13    18   ar
    24    13    14   ar
    25    14    15   ar
    26    14    27    1
    27    15    16   ar
    28    15    28    1
    29    16    17   ar
    30    17    18   ar
    31    17    29    1
    32    18    30    1
@<TRIPOS>MOLECULE
ZINC03832254
 38 40 0 0 0
SMALL
USER_CHARGES

@<TRIPOS>ATOM
      1 C1          4.4912   17.9822   17.5617 C.3     1  <0>1        0.0790
      2 O1          4.7776   16.9835   18.5430 O.3     1  <0>1       -0.4913
      3 C2          5.6483   16.0026   18.1888 C.ar    1  <0>1        0.1672
      4 C3          6.2056   16.0104   16.9300 C.ar    1  <0>1        0.0099
      5 C4          7.1056   15.0010   16.5552 C.ar    1  <0>1        0.0782
      6 C5          7.4300   13.9802   17.4856 C.ar    1  <0>1        0.0465
      7 C6          8.3305   12.9722   17.1076 C.ar    1  <0>1       -0.0398
      8 C7          8.8658   13.0216   15.8275 C.ar    1  <0>1        0.0010
      9 C8          8.4964   14.0637   14.9633 C.ar    1  <0>1        0.0360
     10 N1          7.6550   14.9954   15.3344 N.ar    1  <0>1       -0.2541
     11 C9          9.8207   11.9806   15.3766 C.ar    1  <0>1       -0.0136
     12 C10        10.2028   10.9394   16.2279 C.ar    1  <0>1       -0.0358
     13 C11        11.0901    9.9892   15.7665 C.ar    1  <0>1        0.0281
     14 N2         11.5835   10.0599   14.5448 N.ar    1  <0>1       -0.2632
     15 C12        11.2529   11.0283   13.7120 C.ar    1  <0>1        0.0281
     16 C13        10.3679   12.0165   14.0905 C.ar    1  <0>1       -0.0358
     17 C14         6.8484   13.9917   18.7694 C.ar    1  <0>1        0.1743
     18 C15         5.9671   14.9963   19.1088 C.ar    1  <0>1        0.2042
     19 O2          5.4033   15.0102   20.3474 O.3     1  <0>1       -0.4885
     20 C16         4.1612   14.3208   20.5025 C.3     1  <0>1        0.0791
     21 O3          7.1536   13.0180   19.6668 O.3     1  <0>1       -0.4907
     22 C17         8.2215   13.2867   20.5775 C.3     1  <0>1        0.0790
     23 H1          4.0583   17.5108   16.6793 H       1  <0>1        0.0660
     24 H2          3.7841   18.7029   17.9724 H       1  <0>1        0.0660
     25 H3          5.4127   18.4943   17.2850 H       1  <0>1        0.0660
     26 H4          5.9504   16.7934   16.2313 H       1  <0>1        0.0677
     27 H5          8.5987   12.1810   17.7921 H       1  <0>1        0.0632
     28 H6          8.9124   14.0953   13.9672 H       1  <0>1        0.0836
     29 H7          9.8062   10.8778   17.2306 H       1  <0>1        0.0639
     30 H8         11.3879    9.1787   16.4152 H       1  <0>1        0.0830
     31 H9         11.6811   11.0478   12.7207 H       1  <0>1        0.0830
     32 H10        10.1014   12.8060   13.4034 H       1  <0>1        0.0639
     33 H11         3.8589   14.3479   21.5493 H       1  <0>1        0.0660
     34 H12         3.3987   14.8039   19.8915 H       1  <0>1        0.0660
     35 H13         4.2786   13.2847   20.1849 H       1  <0>1        0.0660
     36 H14         8.4140   12.4011   21.1833 H       1  <0>1        0.0660
     37 H15         9.1200   13.5459   20.0175 H       1  <0>1        0.0660
     38 H16         7.9454   14.1178   21.2264 H       1  <0>1        0.0660
@<TRIPOS>BOND
     1     1     2    1
     2     1    23    1
     3     1    24    1
     4     1    25    1
     5     2     3    1
     6     3    18   ar
     7     3     4   ar
     8     4     5   ar
     9     4    26    1
    10     5    10   ar
    11     5     6   ar
    12     6     7   ar
    13     6    17   ar
    14     7     8   ar
    15     7    27    1
    16     8     9   ar
    17     8    11    1
    18     9    10   ar
    19     9    28    1
    20    11    16   ar
    21    11    12   ar
    22    12    13   ar
    23    12    29    1
    24    13    14   ar
    25    13    30    1
    26    14    15   ar
    27    15    16   ar
    28    15    31    1
    29    16    32    1
    30    17    18   ar
    31    17    21    1
    32    18    19    1
    33    19    20    1
    34    20    33    1
    35    20    34    1
    36    20    35    1
    37    21    22    1
    38    22    36    1
    39    22    37    1
    40    22    38    1
@<TRIPOS>MOLECULE
ZINC03832255
 27 30 0 0 0
SMALL
USER_CHARGES

@<TRIPOS>ATOM
      1 C1          7.2422   14.4696   19.4711 C.ar    1  <0>1       -0.0470
      2 C2          6.2552   15.1956   20.0431 C.ar    1  <0>1       -0.0237
      3 S1          5.4292   15.8953   18.6241 S.2     1  <0>1       -0.1045
      4 C3          6.4554   15.1802   17.3508 C.ar    1  <0>1       -0.0166
      5 C4          7.3516   14.4536   18.0839 C.ar    1  <0>1       -0.0094
      6 C5          8.4202   13.6705   17.4162 C.ar    1  <0>1        0.0013
      7 C6          8.5195   13.6620   16.0320 C.ar    1  <0>1       -0.0433
      8 C7          9.5493   12.9048   15.4490 C.ar    1  <0>1        0.0047
      9 C8          9.7115   12.8502   14.0542 C.ar    1  <0>1       -0.0069
     10 C9         10.7198   12.1040   13.5176 C.ar    1  <0>1        0.1669
     11 C10        11.6000   11.3879   14.3476 C.ar    1  <0>1        0.1683
     12 C11        11.4653   11.4257   15.7055 C.ar    1  <0>1        0.0098
     13 C12        10.4371   12.1849   16.2887 C.ar    1  <0>1        0.0747
     14 N1         10.2908   12.2328   17.6172 N.ar    1  <0>1       -0.2543
     15 C13         9.3383   12.9335   18.1795 C.ar    1  <0>1        0.0360
     16 O1         12.5015   10.7346   13.5562 O.3     1  <0>1       -0.4525
     17 C14        11.9203   10.7206   12.2396 C.3     1  <0>1        0.2332
     18 O2         11.0822   11.8905   12.2181 O.3     1  <0>1       -0.4526
     19 H1          7.9357   13.9109   20.0820 H       1  <0>1        0.0629
     20 H2          6.0255   15.3205   21.0910 H       1  <0>1        0.0693
     21 H3          6.3857   15.2918   16.2788 H       1  <0>1        0.0699
     22 H4          7.8259   14.2210   15.4212 H       1  <0>1        0.0631
     23 H5          9.0402   13.3974   13.4089 H       1  <0>1        0.0662
     24 H6         12.1495   10.8722   16.3316 H       1  <0>1        0.0677
     25 H7          9.2570   12.9439   19.2564 H       1  <0>1        0.0836
     26 H8         12.6968   10.7925   11.4781 H       1  <0>1        0.1166
     27 H9         11.3234    9.8200   12.0947 H       1  <0>1        0.1166
@<TRIPOS>BOND
     1     1     5   ar
     2     1     2   ar
     3     1    19    1
     4     2     3   ar
     5     2    20    1
     6     3     4   ar
     7     4     5   ar
     8     4    21    1
     9     5     6    1
    10     6    15   ar
    11     6     7   ar
    12     7     8   ar
    13     7    22    1
    14     8    13   ar
    15     8     9   ar
    16     9    10   ar
    17     9    23    1
    18    10    18    1
    19    10    11   ar
    20    11    12   ar
    21    11    16    1
    22    12    13   ar
    23    12    24    1
    24    13    14   ar
    25    14    15   ar
    26    15    25    1
    27    16    17    1
    28    17    18    1
    29    17    26    1
    30    17    27    1
@<TRIPOS>MOLECULE
ZINC03832256
 45 47 0 0 0
SMALL
USER_CHARGES

@<TRIPOS>ATOM
      1 C1         -1.3109    7.1924   14.7380 C.3     1  <0>1        0.0788
      2 O1         -0.2940    6.2201   14.9882 O.3     1  <0>1       -0.4951
      3 C2          0.9816    6.6758   15.0980 C.ar    1  <0>1        0.1201
      4 C3          2.0186    5.7867   15.3407 C.ar    1  <0>1       -0.0197
      5 C4          3.3144    6.2523   15.4515 C.ar    1  <0>1       -0.0551
      6 C5          3.5785    7.6032   15.3208 C.ar    1  <0>1       -0.0468
      7 C6          2.5468    8.4914   15.0788 C.ar    1  <0>1       -0.0551
      8 C7          1.2491    8.0308   14.9672 C.ar    1  <0>1       -0.0197
      9 C8          4.9923    8.1091   15.4482 C.3     1  <0>1       -0.0236
     10 C9          5.6612    8.1058   14.0723 C.3     1  <0>1       -0.0222
     11 C10         7.0750    8.6118   14.1999 C.ar    1  <0>1       -0.0284
     12 C11         8.0954    7.7361   14.4445 C.ar    1  <0>1       -0.0478
     13 C12         9.3997    8.2505   14.5559 C.ar    1  <0>1        0.0043
     14 C13        10.4967    7.4089   14.8061 C.ar    1  <0>1       -0.0071
     15 C14        11.7476    7.9430   14.9074 C.ar    1  <0>1        0.1622
     16 C15        11.9507    9.3245   14.7649 C.ar    1  <0>1        0.1635
     17 C16        10.9042   10.1651   14.5216 C.ar    1  <0>1        0.0097
     18 C17         9.6028    9.6462   14.4110 C.ar    1  <0>1        0.0747
     19 N1          8.5603   10.4482   14.1719 N.ar    1  <0>1       -0.2546
     20 C18         7.3435    9.9709   14.0628 C.ar    1  <0>1        0.0315
     21 O2         13.2069    9.8316   14.8712 O.3     1  <0>1       -0.4914
     22 C19        13.3512   11.2450   14.7170 C.3     1  <0>1        0.0790
     23 O3         12.8089    7.1287   15.1495 O.3     1  <0>1       -0.4914
     24 C20        12.5375    5.7323   15.2852 C.3     1  <0>1        0.0790
     25 H1         -2.2794    6.6966   14.6728 H       1  <0>1        0.0660
     26 H2         -1.3280    7.9178   15.5514 H       1  <0>1        0.0660
     27 H3         -1.1008    7.7044   13.7989 H       1  <0>1        0.0660
     28 H4          1.8129    4.7314   15.4433 H       1  <0>1        0.0654
     29 H5          4.1221    5.5605   15.6400 H       1  <0>1        0.0621
     30 H6          2.7555    9.5462   14.9775 H       1  <0>1        0.0621
     31 H7          0.4436    8.7249   14.7780 H       1  <0>1        0.0654
     32 H8          4.9803    9.1247   15.8440 H       1  <0>1        0.0316
     33 H9          5.5501    7.4619   16.1251 H       1  <0>1        0.0316
     34 H10         5.6731    7.0903   13.6765 H       1  <0>1        0.0317
     35 H11         5.1033    8.7530   13.3955 H       1  <0>1        0.0317
     36 H12         7.9054    6.6781   14.5492 H       1  <0>1        0.0627
     37 H13        10.3501    6.3447   14.9172 H       1  <0>1        0.0662
     38 H14        11.0753   11.2261   14.4137 H       1  <0>1        0.0677
     39 H15         6.5278   10.6506   13.8655 H       1  <0>1        0.0832
     40 H16        12.9987   11.5403   13.7286 H       1  <0>1        0.0660
     41 H17        12.7636   11.7556   15.4799 H       1  <0>1        0.0660
     42 H18        14.4012   11.5168   14.8245 H       1  <0>1        0.0660
     43 H19        11.8516    5.5747   16.1175 H       1  <0>1        0.0660
     44 H20        12.0856    5.3591   14.3662 H       1  <0>1        0.0660
     45 H21        13.4684    5.1981   15.4753 H       1  <0>1        0.0660
@<TRIPOS>BOND
     1     1     2    1
     2     1    25    1
     3     1    26    1
     4     1    27    1
     5     2     3    1
     6     3     8   ar
     7     3     4   ar
     8     4     5   ar
     9     4    28    1
    10     5     6   ar
    11     5    29    1
    12     6     7   ar
    13     6     9    1
    14     7     8   ar
    15     7    30    1
    16     8    31    1
    17     9    10    1
    18     9    32    1
    19     9    33    1
    20    10    11    1
    21    10    34    1
    22    10    35    1
    23    11    20   ar
    24    11    12   ar
    25    12    13   ar
    26    12    36    1
    27    13    18   ar
    28    13    14   ar
    29    14    15   ar
    30    14    37    1
    31    15    16   ar
    32    15    23    1
    33    16    17   ar
    34    16    21    1
    35    17    18   ar
    36    17    38    1
    37    18    19   ar
    38    19    20   ar
    39    20    39    1
    40    21    22    1
    41    22    40    1
    42    22    41    1
    43    22    42    1
    44    23    24    1
    45    24    43    1
    46    24    44    1
    47    24    45    1
@<TRIPOS>MOLECULE
ZINC03832257
 41 44 0 0 0
SMALL
USER_CHARGES

@<TRIPOS>ATOM
      1 C1         13.3013   10.4405   13.9258 C.3     1  <0>1       -0.0469
      2 C2         12.0511    9.5608   13.8619 C.3     1  <0>1        0.0252
      3 N1         11.7647    9.0216   15.1937 N.ar    1  <0>1       -0.2925
      4 C3         10.9514    9.7214   16.0493 C.ar    1  <0>1        0.1485
      5 C4         10.6657    9.2159   17.3357 C.ar    1  <0>1        0.0365
      6 C5         11.2162    7.9818   17.7538 C.ar    1  <0>1       -0.0367
      7 C6         12.0259    7.2914   16.8938 C.ar    1  <0>1        0.0479
      8 C7         12.2979    7.8414   15.5639 C.ar    1  <0>1        0.2606
      9 O1         13.0134    7.2304   14.7901 O.2     1  <0>1       -0.2670
     10 C8         12.6177    5.9949   17.3023 C.ar    1  <0>1       -0.0057
     11 C9         13.5421    5.9299   18.3411 C.ar    1  <0>1       -0.0468
     12 C10        14.0562    4.7284   18.6876 C.ar    1  <0>1       -0.0237
     13 S1         13.2534    3.6265   17.5357 S.2     1  <0>1       -0.1045
     14 C11        12.2725    4.8360   16.6635 C.ar    1  <0>1       -0.0165
     15 C12         9.8296    9.9619   18.1793 C.ar    1  <0>1        0.0418
     16 N2          9.3438   11.1065   17.7362 N.ar    1  <0>1       -0.2219
     17 C13         9.6343   11.5515   16.5188 C.ar    1  <0>1        0.2214
     18 N3         10.4183   10.8829   15.6872 N.ar    1  <0>1       -0.1961
     19 N4          9.0989   12.7570   16.1052 N.pl3   1  <0>1       -0.2836
     20 C14         8.1778   13.4275   16.9154 C.ar    1  <0>1        0.0336
     21 C15         7.2812   12.7066   17.6938 C.ar    1  <0>1       -0.0405
     22 C16         6.3765   13.3721   18.4974 C.ar    1  <0>1       -0.0600
     23 C17         6.3552   14.7546   18.5194 C.ar    1  <0>1       -0.0616
     24 C18         7.2423   15.4754   17.7410 C.ar    1  <0>1       -0.0600
     25 C19         8.1534   14.8161   16.9395 C.ar    1  <0>1       -0.0405
     26 H1         14.1479    9.8444   14.2662 H       1  <0>1        0.0247
     27 H2         13.1322   11.2621   14.6218 H       1  <0>1        0.0247
     28 H3         13.5143   10.8415   12.9350 H       1  <0>1        0.0247
     29 H4         11.2043   10.1569   13.5215 H       1  <0>1        0.0490
     30 H5         12.2201    8.7391   13.1660 H       1  <0>1        0.0490
     31 H6         11.0004    7.5905   18.7370 H       1  <0>1        0.0633
     32 H7         13.8414    6.8257   18.8649 H       1  <0>1        0.0629
     33 H8         14.7729    4.4953   19.4611 H       1  <0>1        0.0693
     34 H9         11.5844    4.6905   15.8439 H       1  <0>1        0.0699
     35 H10         9.5887    9.6074   19.1707 H       1  <0>1        0.0838
     36 H11         9.3623   13.1376   15.2527 H       1  <0>1        0.1550
     37 H12         7.2944   11.6268   17.6736 H       1  <0>1        0.0636
     38 H13         5.6818   12.8121   19.1059 H       1  <0>1        0.0618
     39 H14         5.6439   15.2726   19.1456 H       1  <0>1        0.0618
     40 H15         7.2228   16.5550   17.7602 H       1  <0>1        0.0618
     41 H16         8.8460   15.3796   16.3319 H       1  <0>1        0.0636
@<TRIPOS>BOND
     1     1     2    1
     2     1    26    1
     3     1    27    1
     4     1    28    1
     5     2     3    1
     6     2    29    1
     7     2    30    1
     8     3     8   ar
     9     3     4   ar
    10     4    18   ar
    11     4     5   ar
    12     5     6   ar
    13     5    15   ar
    14     6     7   ar
    15     6    31    1
    16     7     8   ar
    17     7    10    1
    18     8     9    2
    19    10    14   ar
    20    10    11   ar
    21    11    12   ar
    22    11    32    1
    23    12    13   ar
    24    12    33    1
    25    13    14   ar
    26    14    34    1
    27    15    16   ar
    28    15    35    1
    29    16    17   ar
    30    17    18   ar
    31    17    19    1
    32    19    20    1
    33    19    36    1
    34    20    25   ar
    35    20    21   ar
    36    21    22   ar
    37    21    37    1
    38    22    23   ar
    39    22    38    1
    40    23    24   ar
    41    23    39    1
    42    24    25   ar
    43    24    40    1
    44    25    41    1
@<TRIPOS>MOLECULE
ZINC03832258
 39 41 0 0 0
SMALL
USER_CHARGES

@<TRIPOS>ATOM
      1 C1          5.5838   12.4901   17.5368 C.ar    1  <0>1       -0.0616
      2 C2          6.6444   13.1783   18.0968 C.ar    1  <0>1       -0.0598
      3 C3          7.9287   12.9645   17.6360 C.ar    1  <0>1       -0.0378
      4 C4          8.1544   12.0572   16.6095 C.ar    1  <0>1        0.0481
      5 C5          7.0867   11.3718   16.0454 C.ar    1  <0>1       -0.0378
      6 C6          5.8054   11.5855   16.5147 C.ar    1  <0>1       -0.0598
      7 N1          9.4562   11.8381   16.1399 N.ar    1  <0>1       -0.2985
      8 C7         10.3537   12.7940   15.7702 C.ar    1  <0>1        0.1015
      9 N2         11.4671   12.2384   15.3898 N.ar    1  <0>1       -0.2353
     10 C8         11.3625   10.8879   15.4884 C.ar    1  <0>1        0.0928
     11 C9         10.0722   10.6099   15.9707 C.ar    1  <0>1        0.0735
     12 C10         9.6746    9.2965   16.1738 C.ar    1  <0>1       -0.0323
     13 C11        10.5473    8.2645   15.9024 C.ar    1  <0>1       -0.0179
     14 C12        11.8270    8.5316   15.4250 C.ar    1  <0>1        0.1226
     15 C13        12.2379    9.8333   15.2170 C.ar    1  <0>1        0.0075
     16 O1         12.6779    7.5042   15.1613 O.3     1  <0>1       -0.4919
     17 C14        12.1910    6.1817   15.3978 C.3     1  <0>1        0.0897
     18 C15        13.2807    5.1667   15.0466 C.3     1  <0>1       -0.0166
     19 C16        12.7594    3.7506   15.2999 C.3     1  <0>1       -0.0266
     20 C17        13.8491    2.7357   14.9487 C.3     1  <0>1        0.0443
     21 O2         13.3623    1.4132   15.1852 O.3     1  <0>1       -0.3950
     22 H1          4.5804   12.6589   17.8989 H       1  <0>1        0.0618
     23 H2          6.4682   13.8837   18.8955 H       1  <0>1        0.0618
     24 H3          8.7567   13.5022   18.0740 H       1  <0>1        0.0638
     25 H4          7.2586   10.6688   15.2437 H       1  <0>1        0.0638
     26 H5          4.9751   11.0494   16.0793 H       1  <0>1        0.0618
     27 H6         10.1681   13.8578   15.7901 H       1  <0>1        0.1032
     28 H7          8.6827    9.0828   16.5438 H       1  <0>1        0.0640
     29 H8         10.2359    7.2426   16.0608 H       1  <0>1        0.0655
     30 H9         13.2320   10.0355   14.8464 H       1  <0>1        0.0676
     31 H10        11.9214    6.0763   16.4487 H       1  <0>1        0.0696
     32 H11        11.3130    6.0013   14.7776 H       1  <0>1        0.0696
     33 H12        13.5503    5.2721   13.9957 H       1  <0>1        0.0299
     34 H13        14.1587    5.3470   15.6668 H       1  <0>1        0.0299
     35 H14        12.4898    3.6453   16.3508 H       1  <0>1        0.0288
     36 H15        11.8814    3.5704   14.6797 H       1  <0>1        0.0288
     37 H16        14.1187    2.8411   13.8978 H       1  <0>1        0.0557
     38 H17        14.7271    2.9160   15.5689 H       1  <0>1        0.0557
     39 H18        14.0020    0.7166   14.9836 H       1  <0>1        0.2094
@<TRIPOS>BOND
     1     1     6   ar
     2     1     2   ar
     3     1    22    1
     4     2     3   ar
     5     2    23    1
     6     3     4   ar
     7     3    24    1
     8     4     5   ar
     9     4     7    1
    10     5     6   ar
    11     5    25    1
    12     6    26    1
    13     7    11   ar
    14     7     8   ar
    15     8     9   ar
    16     8    27    1
    17     9    10   ar
    18    10    15   ar
    19    10    11   ar
    20    11    12   ar
    21    12    13   ar
    22    12    28    1
    23    13    14   ar
    24    13    29    1
    25    14    15   ar
    26    14    16    1
    27    15    30    1
    28    16    17    1
    29    17    18    1
    30    17    31    1
    31    17    32    1
    32    18    19    1
    33    18    33    1
    34    18    34    1
    35    19    20    1
    36    19    35    1
    37    19    36    1
    38    20    21    1
    39    20    37    1
    40    20    38    1
    41    21    39    1
@<TRIPOS>MOLECULE
ZINC03832259
 37 40 0 0 0
SMALL
USER_CHARGES

@<TRIPOS>ATOM
      1 C1         14.9185    5.3840   15.6665 C.3     1  <0>1        0.0167
      2 N1         13.5318    4.9117   15.6467 N.ar    1  <0>1       -0.2953
      3 C2         12.5160    5.7978   15.3892 C.ar    1  <0>1        0.1482
      4 C3         11.1748    5.3591   15.3668 C.ar    1  <0>1        0.0365
      5 C4         10.8664    4.0001   15.6097 C.ar    1  <0>1       -0.0367
      6 C5         11.8857    3.1243   15.8665 C.ar    1  <0>1        0.0479
      7 C6         13.2667    3.6122   15.8818 C.ar    1  <0>1        0.2603
      8 O1         14.1802    2.8388   16.1087 O.2     1  <0>1       -0.2670
      9 C7         11.5951    1.6939   16.1259 C.ar    1  <0>1       -0.0057
     10 C8         10.8800    1.3060   17.2555 C.ar    1  <0>1       -0.0468
     11 C9         10.6300   -0.0077   17.4546 C.ar    1  <0>1       -0.0237
     12 S1         11.4175   -0.7615   16.0416 S.2     1  <0>1       -0.1045
     13 C10        12.0280    0.7245   15.2639 C.ar    1  <0>1       -0.0165
     14 C11        10.1666    6.2966   15.0998 C.ar    1  <0>1        0.0418
     15 N2         10.5128    7.5516   14.8800 N.ar    1  <0>1       -0.2219
     16 C12        11.7859    7.9286   14.9090 C.ar    1  <0>1        0.2214
     17 N3         12.7722    7.0793   15.1512 N.ar    1  <0>1       -0.1961
     18 N4         12.0930    9.2561   14.6717 N.pl3   1  <0>1       -0.2835
     19 C13        11.0896   10.1470   14.2955 C.ar    1  <0>1        0.0364
     20 C14        10.0159    9.7257   13.5117 C.ar    1  <0>1       -0.0223
     21 C15         9.0408   10.6374   13.1652 C.ar    1  <0>1        0.0293
     22 N5          9.1206   11.8952   13.5570 N.ar    1  <0>1       -0.2631
     23 C16        10.1231   12.3336   14.2952 C.ar    1  <0>1        0.0293
     24 C17        11.1359   11.4842   14.6883 C.ar    1  <0>1       -0.0223
     25 H1         15.1805    5.6993   16.6765 H       1  <0>1        0.0457
     26 H2         15.5815    4.5772   15.3543 H       1  <0>1        0.0457
     27 H3         15.0250    6.2268   14.9836 H       1  <0>1        0.0457
     28 H4          9.8418    3.6593   15.5942 H       1  <0>1        0.0633
     29 H5         10.5267    2.0440   17.9604 H       1  <0>1        0.0629
     30 H6         10.0948   -0.4807   18.2648 H       1  <0>1        0.0693
     31 H7         12.5927    0.8307   14.3494 H       1  <0>1        0.0699
     32 H8          9.1289    5.9985   15.0748 H       1  <0>1        0.0838
     33 H9         13.0068    9.5670   14.7672 H       1  <0>1        0.1550
     34 H10         9.9469    8.6989   13.1839 H       1  <0>1        0.0651
     35 H11         8.2035   10.3191   12.5618 H       1  <0>1        0.0830
     36 H12        10.1507   13.3708   14.5948 H       1  <0>1        0.0830
     37 H13        11.9538   11.8495   15.2917 H       1  <0>1        0.0651
@<TRIPOS>BOND
     1     1     2    1
     2     1    25    1
     3     1    26    1
     4     1    27    1
     5     2     7   ar
     6     2     3   ar
     7     3    17   ar
     8     3     4   ar
     9     4     5   ar
    10     4    14   ar
    11     5     6   ar
    12     5    28    1
    13     6     7   ar
    14     6     9    1
    15     7     8    2
    16     9    13   ar
    17     9    10   ar
    18    10    11   ar
    19    10    29    1
    20    11    12   ar
    21    11    30    1
    22    12    13   ar
    23    13    31    1
    24    14    15   ar
    25    14    32    1
    26    15    16   ar
    27    16    17   ar
    28    16    18    1
    29    18    19    1
    30    18    33    1
    31    19    24   ar
    32    19    20   ar
    33    20    21   ar
    34    20    34    1
    35    21    22   ar
    36    21    35    1
    37    22    23   ar
    38    23    24   ar
    39    23    36    1
    40    24    37    1
@<TRIPOS>MOLECULE
ZINC03832260
 50 52 0 0 0
SMALL
USER_CHARGES

@<TRIPOS>ATOM
      1 C1         11.6726   18.7796   19.7791 C.3     1  <0>1       -0.0653
      2 C2         11.9888   17.5108   18.9847 C.3     1  <0>1       -0.0559
      3 C3         10.6834   16.8144   18.5952 C.3     1  <0>1       -0.0529
      4 C4         10.9995   15.5456   17.8008 C.3     1  <0>1       -0.0448
      5 C5          9.6942   14.8491   17.4114 C.3     1  <0>1        0.0243
      6 C6         10.0056   13.5994   16.6289 C.2     1  <0>1        0.2172
      7 O1         11.1582   13.2956   16.4048 O.2     1  <0>1       -0.2755
      8 N1          9.0033   12.8192   16.1782 N.am    1  <0>1       -0.2854
      9 C7          9.2875   11.7104   15.3735 C.ar    1  <0>1        0.0351
     10 C8          8.4150   11.3489   14.3542 C.ar    1  <0>1       -0.0404
     11 C9          8.6973   10.2572   13.5561 C.ar    1  <0>1       -0.0583
     12 C10         9.8420    9.5150   13.7751 C.ar    1  <0>1       -0.0404
     13 C11        10.7158    9.8681   14.7959 C.ar    1  <0>1        0.0353
     14 C12        10.4377   10.9675   15.5960 C.ar    1  <0>1       -0.0192
     15 N2         11.8737    9.1164   15.0173 N.pl3   1  <0>1       -0.2836
     16 C13        11.8682    7.7508   14.7838 C.ar    1  <0>1        0.2200
     17 N3         10.7308    7.1572   14.4511 N.ar    1  <0>1       -0.2226
     18 C14        10.6844    5.8550   14.2197 C.ar    1  <0>1        0.0332
     19 C15        11.8434    5.1065   14.3280 C.ar    1  <0>1       -0.0174
     20 C16        13.0271    5.7597   14.6803 C.ar    1  <0>1        0.0775
     21 N4         13.0000    7.0734   14.8935 N.ar    1  <0>1       -0.2142
     22 C17        14.2955    5.0021   14.8093 C.ar    1  <0>1        0.0186
     23 C18        15.4804    5.6551   15.1618 C.ar    1  <0>1       -0.0497
     24 C19        16.6374    4.9031   15.2690 C.ar    1  <0>1       -0.0430
     25 C20        16.5848    3.5424   15.0263 C.ar    1  <0>1        0.0276
     26 N5         15.4517    2.9538   14.6953 N.ar    1  <0>1       -0.2626
     27 C21        14.3245    3.6269   14.5867 C.ar    1  <0>1        0.0367
     28 H1         12.6026   19.2758   20.0565 H       1  <0>1        0.0230
     29 H2         11.0712   19.4514   19.1666 H       1  <0>1        0.0230
     30 H3         11.1188   18.5157   20.6800 H       1  <0>1        0.0230
     31 H4         12.5903   16.8391   19.5972 H       1  <0>1        0.0263
     32 H5         12.5426   17.7748   18.0838 H       1  <0>1        0.0263
     33 H6         10.0819   17.4861   17.9828 H       1  <0>1        0.0265
     34 H7         10.1296   16.5504   19.4962 H       1  <0>1        0.0265
     35 H8         11.6010   14.8738   18.4134 H       1  <0>1        0.0270
     36 H9         11.5534   15.8095   16.8999 H       1  <0>1        0.0270
     37 H10         9.0927   15.5208   16.7989 H       1  <0>1        0.0358
     38 H11         9.1403   14.5852   18.3123 H       1  <0>1        0.0358
     39 H12         8.0852   13.0241   16.4149 H       1  <0>1        0.1548
     40 H13         7.5172   11.9243   14.1833 H       1  <0>1        0.0636
     41 H14         8.0194    9.9805   12.7622 H       1  <0>1        0.0619
     42 H15        10.0579    8.6599   13.1519 H       1  <0>1        0.0636
     43 H16        11.1154   11.2443   16.3900 H       1  <0>1        0.0655
     44 H17        12.6809    9.5510   15.3342 H       1  <0>1        0.1550
     45 H18         9.7521    5.3815   13.9496 H       1  <0>1        0.0831
     46 H19        11.8329    4.0422   14.1448 H       1  <0>1        0.0654
     47 H20        15.4927    6.7194   15.3454 H       1  <0>1        0.0625
     48 H21        17.5710    5.3736   15.5397 H       1  <0>1        0.0633
     49 H22        17.4856    2.9524   15.1094 H       1  <0>1        0.0829
     50 H23        13.4157    3.1090   14.3182 H       1  <0>1        0.0836
@<TRIPOS>BOND
     1     1     2    1
     2     1    28    1
     3     1    29    1
     4     1    30    1
     5     2     3    1
     6     2    31    1
     7     2    32    1
     8     3     4    1
     9     3    33    1
    10     3    34    1
    11     4     5    1
    12     4    35    1
    13     4    36    1
    14     5     6    1
    15     5    37    1
    16     5    38    1
    17     6     7    2
    18     6     8   am
    19     8     9    1
    20     8    39    1
    21     9    14   ar
    22     9    10   ar
    23    10    11   ar
    24    10    40    1
    25    11    12   ar
    26    11    41    1
    27    12    13   ar
    28    12    42    1
    29    13    14   ar
    30    13    15    1
    31    14    43    1
    32    15    16    1
    33    15    44    1
    34    16    21   ar
    35    16    17   ar
    36    17    18   ar
    37    18    19   ar
    38    18    45    1
    39    19    20   ar
    40    19    46    1
    41    20    21   ar
    42    20    22    1
    43    22    27   ar
    44    22    23   ar
    45    23    24   ar
    46    23    47    1
    47    24    25   ar
    48    24    48    1
    49    25    26   ar
    50    25    49    1
    51    26    27   ar
    52    27    50    1
@<TRIPOS>MOLECULE
ZINC03832261
 30 32 0 0 0
SMALL
USER_CHARGES

@<TRIPOS>ATOM
      1 C1         12.6678   10.6495   12.3509 C.3     1  <0>1        0.0788
      2 O1         12.5839   10.6463   13.7774 O.3     1  <0>1       -0.4950
      3 C2         11.5919   11.3850   14.3385 C.ar    1  <0>1        0.1221
      4 C3         10.7180   12.1054   13.5172 C.ar    1  <0>1       -0.0193
      5 C4          9.7136   12.8486   14.0529 C.ar    1  <0>1       -0.0491
      6 C5          9.5533   12.9059   15.4485 C.ar    1  <0>1        0.0012
      7 C6          8.5274   13.6695   16.0305 C.ar    1  <0>1       -0.0434
      8 C7          8.4276   13.6802   17.4145 C.ar    1  <0>1        0.0009
      9 C8          9.3412   12.9385   18.1798 C.ar    1  <0>1        0.0360
     10 N1         10.2904   12.2330   17.6189 N.ar    1  <0>1       -0.2543
     11 C9         10.4372   12.1834   16.2898 C.ar    1  <0>1        0.0745
     12 C10        11.4621   11.4199   15.7081 C.ar    1  <0>1        0.0060
     13 C11         7.3635   14.4699   18.0804 C.ar    1  <0>1       -0.0136
     14 C12         6.4498   15.2182   17.3323 C.ar    1  <0>1       -0.0358
     15 C13         5.4724   15.9344   17.9918 C.ar    1  <0>1        0.0281
     16 N2          5.4002   15.9273   19.3092 N.ar    1  <0>1       -0.2632
     17 C14         6.2456   15.2390   20.0522 C.ar    1  <0>1        0.0281
     18 C15         7.2502   14.4910   19.4736 C.ar    1  <0>1       -0.0358
     19 H1         13.5009   10.0218   12.0344 H       1  <0>1        0.0660
     20 H2         12.8264   11.6687   11.9985 H       1  <0>1        0.0660
     21 H3         11.7399   10.2603   11.9315 H       1  <0>1        0.0660
     22 H4         10.8402   12.0673   12.4448 H       1  <0>1        0.0654
     23 H5          9.0431   13.3975   13.4082 H       1  <0>1        0.0625
     24 H6          7.8374   14.2318   15.4189 H       1  <0>1        0.0631
     25 H7          9.2592   12.9506   19.2566 H       1  <0>1        0.0836
     26 H8         12.1452   10.8632   16.3324 H       1  <0>1        0.0676
     27 H9          6.5060   15.2324   16.2538 H       1  <0>1        0.0639
     28 H10         4.7592   16.5119   17.4222 H       1  <0>1        0.0830
     29 H11         6.1501   15.2615   21.1277 H       1  <0>1        0.0830
     30 H12         7.9387   13.9299   20.0880 H       1  <0>1        0.0639
@<TRIPOS>BOND
     1     1     2    1
     2     1    19    1
     3     1    20    1
     4     1    21    1
     5     2     3    1
     6     3    12   ar
     7     3     4   ar
     8     4     5   ar
     9     4    22    1
    10     5     6   ar
    11     5    23    1
    12     6    11   ar
    13     6     7   ar
    14     7     8   ar
    15     7    24    1
    16     8     9   ar
    17     8    13    1
    18     9    10   ar
    19     9    25    1
    20    10    11   ar
    21    11    12   ar
    22    12    26    1
    23    13    18   ar
    24    13    14   ar
    25    14    15   ar
    26    14    27    1
    27    15    16   ar
    28    15    28    1
    29    16    17   ar
    30    17    18   ar
    31    17    29    1
    32    18    30    1
@<TRIPOS>MOLECULE
ZINC03832262
 35 37 0 0 0
SMALL
USER_CHARGES

@<TRIPOS>ATOM
      1 C1         13.7262    5.1435   15.5325 C.ar    1  <0>1       -0.0616
      2 C2         12.3558    5.1790   15.3510 C.ar    1  <0>1       -0.0598
      3 C3         11.7245    6.3772   15.0799 C.ar    1  <0>1       -0.0378
      4 C4         12.4673    7.5468   14.9899 C.ar    1  <0>1        0.0481
      5 C5         13.8438    7.5070   15.1671 C.ar    1  <0>1       -0.0378
      6 C6         14.4686    6.3068   15.4440 C.ar    1  <0>1       -0.0598
      7 N1         11.8297    8.7638   14.7151 N.ar    1  <0>1       -0.2985
      8 C7         10.9458    9.0036   13.7065 C.ar    1  <0>1        0.1015
      9 N2         10.5453   10.2409   13.7481 N.ar    1  <0>1       -0.2353
     10 C8         11.1434   10.8817   14.7854 C.ar    1  <0>1        0.0928
     11 C9         11.9759    9.9453   15.4216 C.ar    1  <0>1        0.0735
     12 C10        12.7234   10.3197   16.5287 C.ar    1  <0>1       -0.0323
     13 C11        12.6478   11.6114   17.0041 C.ar    1  <0>1       -0.0178
     14 C12        11.8252   12.5445   16.3798 C.ar    1  <0>1        0.1229
     15 C13        11.0752   12.1879   15.2766 C.ar    1  <0>1        0.0075
     16 O1         11.7599   13.8154   16.8591 O.3     1  <0>1       -0.4866
     17 C14        12.5606   14.1192   18.0030 C.3     1  <0>1        0.1290
     18 C15        12.3569   15.5845   18.3935 C.3     1  <0>1       -0.0004
     19 H1         14.2176    4.2054   15.7444 H       1  <0>1        0.0618
     20 H2         11.7785    4.2689   15.4214 H       1  <0>1        0.0618
     21 H3         10.6541    6.4042   14.9385 H       1  <0>1        0.0638
     22 H4         14.4248    8.4144   15.0932 H       1  <0>1        0.0638
     23 H5         15.5387    6.2758   15.5862 H       1  <0>1        0.0618
     24 H6         10.6246    8.2731   12.9786 H       1  <0>1        0.1032
     25 H7         13.3639    9.6003   17.0172 H       1  <0>1        0.0640
     26 H8         13.2306   11.9012   17.8659 H       1  <0>1        0.0655
     27 H9         10.4384   12.9155   14.7957 H       1  <0>1        0.0676
     28 H10        12.2661   13.4776   18.8335 H       1  <0>1        0.0751
     29 H11        13.6111   13.9489   17.7670 H       1  <0>1        0.0751
     30 H12        13.0328   15.8404   19.2094 H       1  <0>1        0.0847
     31 H13        12.5664   16.2219   17.5345 H       1  <0>1        0.0847
     32 H14        10.7291   15.1610   19.5806 H       1  <0>1        0.1995
     33 H15        10.8077   16.7480   19.0898 H       1  <0>1        0.1995
     34 N3         10.9557   15.7812   18.8050 N.4     1  <0>1        0.2209
     35 H16        10.3381   15.5670   18.0132 H       1  <0>1        0.1995
@<TRIPOS>BOND
     1     1     6   ar
     2     1     2   ar
     3     1    19    1
     4     2     3   ar
     5     2    20    1
     6     3     4   ar
     7     3    21    1
     8     4     5   ar
     9     4     7    1
    10     5     6   ar
    11     5    22    1
    12     6    23    1
    13     7    11   ar
    14     7     8   ar
    15     8     9   ar
    16     8    24    1
    17     9    10   ar
    18    10    15   ar
    19    10    11   ar
    20    11    12   ar
    21    12    13   ar
    22    12    25    1
    23    13    14   ar
    24    13    26    1
    25    14    15   ar
    26    14    16    1
    27    15    27    1
    28    16    17    1
    29    17    18    1
    30    17    28    1
    31    17    29    1
    32    18    30    1
    33    18    31    1
    34    18    34    1
    35    32    34    1
    36    33    34    1
    37    34    35    1
@<TRIPOS>MOLECULE
ZINC03832263
 46 49 0 0 0
SMALL
USER_CHARGES

@<TRIPOS>ATOM
      1 C1          3.1148    5.2442   10.3250 C.ar    1  <0>1       -0.0616
      2 C2          3.1167    4.3216   11.3550 C.ar    1  <0>1       -0.0598
      3 C3          3.8592    4.5590   12.4953 C.ar    1  <0>1       -0.0378
      4 C4          4.6041    5.7255   12.6066 C.ar    1  <0>1        0.0481
      5 C5          4.5960    6.6524   11.5728 C.ar    1  <0>1       -0.0378
      6 C6          3.8557    6.4068   10.4328 C.ar    1  <0>1       -0.0598
      7 N1          5.3578    5.9694   13.7622 N.ar    1  <0>1       -0.2985
      8 C7          4.9160    5.8842   15.0482 C.ar    1  <0>1        0.1015
      9 N2          5.8813    6.1716   15.8721 N.ar    1  <0>1       -0.2353
     10 C8          7.0094    6.4612   15.1735 C.ar    1  <0>1        0.0928
     11 C9          6.6918    6.3364   13.8104 C.ar    1  <0>1        0.0735
     12 C10         7.6609    6.5747   12.8467 C.ar    1  <0>1       -0.0323
     13 C11         8.9360    6.9332   13.2284 C.ar    1  <0>1       -0.0178
     14 C12         9.2584    7.0590   14.5764 C.ar    1  <0>1        0.1229
     15 C13         8.3052    6.8257   15.5478 C.ar    1  <0>1        0.0075
     16 O1         10.5201    7.4135   14.9391 O.3     1  <0>1       -0.4866
     17 C14        11.4584    7.6403   13.8855 C.3     1  <0>1        0.1291
     18 C15        12.8128    8.0266   14.4832 C.3     1  <0>1        0.0033
     19 C16        14.3846    7.3387   16.1929 C.3     1  <0>1       -0.0077
     20 C17        14.8764    6.1381   17.0058 C.3     1  <0>1        0.0878
     21 O2         15.3600    5.1304   16.1135 O.3     1  <0>1       -0.3693
     22 C18        14.3808    4.6727   15.1770 C.3     1  <0>1        0.0878
     23 C19        13.8840    5.8584   14.3457 C.3     1  <0>1       -0.0077
     24 H1          2.5339    5.0561    9.4342 H       1  <0>1        0.0618
     25 H2          2.5375    3.4144   11.2677 H       1  <0>1        0.0618
     26 H3          3.8605    3.8380   13.2993 H       1  <0>1        0.0638
     27 H4          5.1708    7.5627   11.6584 H       1  <0>1        0.0638
     28 H5          3.8523    7.1254    9.6267 H       1  <0>1        0.0618
     29 H6          3.9115    5.6167   15.3409 H       1  <0>1        0.1032
     30 H7          7.4168    6.4786   11.7990 H       1  <0>1        0.0640
     31 H8          9.6892    7.1180   12.4767 H       1  <0>1        0.0655
     32 H9          8.5603    6.9243   16.5926 H       1  <0>1        0.0676
     33 H10        11.5681    6.7311   13.2946 H       1  <0>1        0.0751
     34 H11        11.0996    8.4476   13.2471 H       1  <0>1        0.0751
     35 H12        13.5031    8.2868   13.6809 H       1  <0>1        0.0848
     36 H13        12.6867    8.8827   15.1460 H       1  <0>1        0.0848
     37 H14        15.2199    7.7731   15.6438 H       1  <0>1        0.0837
     38 H15        13.9628    8.0854   16.8656 H       1  <0>1        0.0837
     39 H16        14.0530    5.7365   17.5964 H       1  <0>1        0.0613
     40 H17        15.6813    6.4526   17.6701 H       1  <0>1        0.0613
     41 H18        13.5428    4.2286   15.7145 H       1  <0>1        0.0613
     42 H19        14.8274    3.9280   14.5182 H       1  <0>1        0.0613
     43 H20        13.0966    5.5246   13.6699 H       1  <0>1        0.0837
     44 H21        14.7113    6.2692   13.7669 H       1  <0>1        0.0837
     45 N3         13.3336    6.8811   15.2604 N.4     1  <0>1        0.2409
     46 H22        12.5648    6.4672   15.8006 H       1  <0>1        0.2036
@<TRIPOS>BOND
     1     1     6   ar
     2     1     2   ar
     3     1    24    1
     4     2     3   ar
     5     2    25    1
     6     3     4   ar
     7     3    26    1
     8     4     5   ar
     9     4     7    1
    10     5     6   ar
    11     5    27    1
    12     6    28    1
    13     7    11   ar
    14     7     8   ar
    15     8     9   ar
    16     8    29    1
    17     9    10   ar
    18    10    15   ar
    19    10    11   ar
    20    11    12   ar
    21    12    13   ar
    22    12    30    1
    23    13    14   ar
    24    13    31    1
    25    14    15   ar
    26    14    16    1
    27    15    32    1
    28    16    17    1
    29    17    18    1
    30    17    33    1
    31    17    34    1
    32    18    35    1
    33    18    36    1
    34    18    45    1
    35    19    20    1
    36    19    37    1
    37    19    38    1
    38    19    45    1
    39    20    21    1
    40    20    39    1
    41    20    40    1
    42    21    22    1
    43    22    23    1
    44    22    41    1
    45    22    42    1
    46    23    43    1
    47    23    44    1
    48    23    45    1
    49    45    46    1
@<TRIPOS>MOLECULE
ZINC03832264
 51 54 0 0 0
SMALL
USER_CHARGES

@<TRIPOS>ATOM
      1 C1          8.5414   11.3286   13.9886 C.ar    1  <0>1       -0.0583
      2 C2          9.7969   10.9448   14.4193 C.ar    1  <0>1       -0.0404
      3 C3         10.2911    9.6884   14.0915 C.ar    1  <0>1        0.0353
      4 C4          9.5246    8.8209   13.3260 C.ar    1  <0>1       -0.0192
      5 C5          8.2626    9.2077   12.8994 C.ar    1  <0>1        0.0351
      6 C6          7.7739   10.4654   13.2309 C.ar    1  <0>1       -0.0404
      7 N1          7.4846    8.3342   12.1315 N.am    1  <0>1       -0.2852
      8 C7          6.1445    8.3229   12.2740 C.2     1  <0>1        0.2203
      9 O1          5.6202    9.0017   13.1315 O.2     1  <0>1       -0.2752
     10 C8          5.2976    7.4668   11.3680 C.3     1  <0>1        0.0359
     11 C9          5.5111    7.8956    9.9149 C.3     1  <0>1       -0.0419
     12 C10         4.6512    7.0265    8.9951 C.3     1  <0>1       -0.0524
     13 C11         3.1764    7.1960    9.3653 C.3     1  <0>1       -0.0530
     14 C12         2.9629    6.7672   10.8184 C.3     1  <0>1       -0.0524
     15 C13         3.8227    7.6363   11.7383 C.3     1  <0>1       -0.0419
     16 N2         11.5617    9.3006   14.5277 N.pl3   1  <0>1       -0.2836
     17 C14        11.8100    7.9755   14.8465 C.ar    1  <0>1        0.2200
     18 N3         10.8059    7.1104   14.8388 N.ar    1  <0>1       -0.2226
     19 C15        11.0023    5.8362   15.1375 C.ar    1  <0>1        0.0332
     20 C16        12.2768    5.4058   15.4623 C.ar    1  <0>1       -0.0174
     21 C17        13.3152    6.3405   15.4621 C.ar    1  <0>1        0.0775
     22 N4         13.0448    7.6049   15.1460 N.ar    1  <0>1       -0.2142
     23 C18        14.6987    5.9289   15.8026 C.ar    1  <0>1        0.0186
     24 C19        15.7385    6.8637   15.8027 C.ar    1  <0>1       -0.0497
     25 C20        17.0118    6.4291   16.1275 C.ar    1  <0>1       -0.0430
     26 C21        17.2131    5.0966   16.4387 C.ar    1  <0>1        0.0276
     27 N5         16.2122    4.2375   16.4303 N.ar    1  <0>1       -0.2626
     28 C22        14.9827    4.6054   16.1332 C.ar    1  <0>1        0.0367
     29 H1          8.1590   12.3056   14.2452 H       1  <0>1        0.0619
     30 H2         10.3945   11.6220   15.0115 H       1  <0>1        0.0636
     31 H3          9.9082    7.8452   13.0665 H       1  <0>1        0.0655
     32 H4          6.7931   10.7686   12.8955 H       1  <0>1        0.0636
     33 H5          7.9099    7.7366   11.4966 H       1  <0>1        0.1548
     34 H6          5.5835    6.4214   11.4841 H       1  <0>1        0.0394
     35 H7          5.2251    8.9410    9.7988 H       1  <0>1        0.0272
     36 H8          6.5618    7.7748    9.6512 H       1  <0>1        0.0272
     37 H9          4.9372    5.9810    9.1112 H       1  <0>1        0.0265
     38 H10         4.8034    7.3319    7.9599 H       1  <0>1        0.0265
     39 H11         2.5638    6.5767    8.7101 H       1  <0>1        0.0265
     40 H12         2.8904    8.2413    9.2492 H       1  <0>1        0.0265
     41 H13         3.2488    5.7218   10.9345 H       1  <0>1        0.0265
     42 H14         1.9122    6.8879   11.0822 H       1  <0>1        0.0265
     43 H15         3.6706    7.3308   12.7734 H       1  <0>1        0.0272
     44 H16         3.5368    8.6817   11.6221 H       1  <0>1        0.0272
     45 H17        12.2692    9.9594   14.6069 H       1  <0>1        0.1550
     46 H18        10.1768    5.1400   15.1284 H       1  <0>1        0.0831
     47 H19        12.4642    4.3715   15.7104 H       1  <0>1        0.0654
     48 H20        15.5527    7.8984   15.5552 H       1  <0>1        0.0625
     49 H21        17.8392    7.1232   16.1382 H       1  <0>1        0.0633
     50 H22        18.2053    4.7542   16.6930 H       1  <0>1        0.0829
     51 H23        14.1884    3.8737   16.1416 H       1  <0>1        0.0836
@<TRIPOS>BOND
     1     1     6   ar
     2     1     2   ar
     3     1    29    1
     4     2     3   ar
     5     2    30    1
     6     3     4   ar
     7     3    16    1
     8     4     5   ar
     9     4    31    1
    10     5     6   ar
    11     5     7    1
    12     6    32    1
    13     7     8   am
    14     7    33    1
    15     8     9    2
    16     8    10    1
    17    10    15    1
    18    10    11    1
    19    10    34    1
    20    11    12    1
    21    11    35    1
    22    11    36    1
    23    12    13    1
    24    12    37    1
    25    12    38    1
    26    13    14    1
    27    13    39    1
    28    13    40    1
    29    14    15    1
    30    14    41    1
    31    14    42    1
    32    15    43    1
    33    15    44    1
    34    16    17    1
    35    16    45    1
    36    17    22   ar
    37    17    18   ar
    38    18    19   ar
    39    19    20   ar
    40    19    46    1
    41    20    21   ar
    42    20    47    1
    43    21    22   ar
    44    21    23    1
    45    23    28   ar
    46    23    24   ar
    47    24    25   ar
    48    24    48    1
    49    25    26   ar
    50    25    49    1
    51    26    27   ar
    52    26    50    1
    53    27    28   ar
    54    28    51    1
@<TRIPOS>MOLECULE
ZINC03832265
 48 51 0 0 0
SMALL
USER_CHARGES

@<TRIPOS>ATOM
      1 C1         12.0595   19.8137   16.8436 C.3     1  <0>1       -0.0397
      2 C2         11.9240   18.3742   16.4189 C.ar    1  <0>1       -0.0504
      3 C3         13.0417   17.6688   16.0094 C.ar    1  <0>1       -0.0581
      4 C4         12.9245   16.3508   15.6193 C.ar    1  <0>1       -0.0494
      5 C5         11.6750   15.7289   15.6382 C.ar    1  <0>1        0.0370
      6 C6         10.5506   16.4478   16.0474 C.ar    1  <0>1       -0.0494
      7 C7         10.6825   17.7636   16.4405 C.ar    1  <0>1       -0.0581
      8 C8         11.5420   14.3171   15.2211 C.2     1  <0>1        0.2483
      9 O1         12.5221   13.6949   14.8604 O.2     1  <0>1       -0.2699
     10 N1         10.3341   13.7196   15.2406 N.am    1  <0>1       -0.2814
     11 C9         10.1931   12.4120   14.7652 C.ar    1  <0>1        0.0354
     12 C10         9.0319   12.0346   14.1015 C.ar    1  <0>1       -0.0404
     13 C11         8.8920   10.7433   13.6313 C.ar    1  <0>1       -0.0583
     14 C12         9.9075    9.8243   13.8143 C.ar    1  <0>1       -0.0404
     15 C13        11.0687   10.1936   14.4816 C.ar    1  <0>1        0.0353
     16 C14        11.2124   11.4903   14.9553 C.ar    1  <0>1       -0.0192
     17 N2         12.0938    9.2619   14.6706 N.pl3   1  <0>1       -0.2836
     18 C15        11.7860    7.9321   14.9083 C.ar    1  <0>1        0.2200
     19 N3         10.5178    7.5482   14.8811 N.ar    1  <0>1       -0.2226
     20 C16        10.1830    6.2872   15.1029 C.ar    1  <0>1        0.0332
     21 C17        11.1756    5.3597   15.3668 C.ar    1  <0>1       -0.0174
     22 C18        12.5034    5.7939   15.3889 C.ar    1  <0>1        0.0775
     23 N4         12.7665    7.0769   15.1513 N.ar    1  <0>1       -0.2142
     24 C19        13.6034    4.8386   15.6664 C.ar    1  <0>1        0.0186
     25 C20        14.9323    5.2723   15.6887 C.ar    1  <0>1       -0.0497
     26 C21        15.9222    4.3417   15.9523 C.ar    1  <0>1       -0.0430
     27 C22        15.5684    3.0245   16.1832 C.ar    1  <0>1        0.0276
     28 N5         14.3055    2.6448   16.1556 N.ar    1  <0>1       -0.2626
     29 C23        13.3288    3.4954   15.9148 C.ar    1  <0>1        0.0367
     30 H1         11.9275   20.4621   15.9775 H       1  <0>1        0.0278
     31 H2         11.2996   20.0453   17.5901 H       1  <0>1        0.0278
     32 H3         13.0493   19.9749   17.2707 H       1  <0>1        0.0278
     33 H4         14.0077   18.1513   15.9948 H       1  <0>1        0.0620
     34 H5         13.7978   15.8012   15.3002 H       1  <0>1        0.0625
     35 H6          9.5802   15.9739   16.0601 H       1  <0>1        0.0625
     36 H7          9.8142   18.3196   16.7618 H       1  <0>1        0.0620
     37 H8          9.5625   14.1965   15.5843 H       1  <0>1        0.1551
     38 H9          8.2382   12.7517   13.9530 H       1  <0>1        0.0636
     39 H10         7.9885   10.4525   13.1158 H       1  <0>1        0.0619
     40 H11         9.7966    8.8166   13.4418 H       1  <0>1        0.0636
     41 H12        12.1159   11.7812   15.4705 H       1  <0>1        0.0655
     42 H13        13.0205    9.5457   14.6314 H       1  <0>1        0.1550
     43 H14         9.1463    5.9852   15.0787 H       1  <0>1        0.0831
     44 H15        10.9295    4.3244   15.5516 H       1  <0>1        0.0654
     45 H16        15.1802    6.3073   15.5044 H       1  <0>1        0.0625
     46 H17        16.9597    4.6406   15.9779 H       1  <0>1        0.0633
     47 H18        16.3381    2.2958   16.3896 H       1  <0>1        0.0829
     48 H19        12.3064    3.1473   15.9051 H       1  <0>1        0.0836
@<TRIPOS>BOND
     1     1     2    1
     2     1    30    1
     3     1    31    1
     4     1    32    1
     5     2     7   ar
     6     2     3   ar
     7     3     4   ar
     8     3    33    1
     9     4     5   ar
    10     4    34    1
    11     5     6   ar
    12     5     8    1
    13     6     7   ar
    14     6    35    1
    15     7    36    1
    16     8     9    2
    17     8    10   am
    18    10    11    1
    19    10    37    1
    20    11    16   ar
    21    11    12   ar
    22    12    13   ar
    23    12    38    1
    24    13    14   ar
    25    13    39    1
    26    14    15   ar
    27    14    40    1
    28    15    16   ar
    29    15    17    1
    30    16    41    1
    31    17    18    1
    32    17    42    1
    33    18    23   ar
    34    18    19   ar
    35    19    20   ar
    36    20    21   ar
    37    20    43    1
    38    21    22   ar
    39    21    44    1
    40    22    23   ar
    41    22    24    1
    42    24    29   ar
    43    24    25   ar
    44    25    26   ar
    45    25    45    1
    46    26    27   ar
    47    26    46    1
    48    27    28   ar
    49    27    47    1
    50    28    29   ar
    51    29    48    1
@<TRIPOS>MOLECULE
ZINC03832266
 38 41 0 0 0
SMALL
USER_CHARGES

@<TRIPOS>ATOM
      1 C1         12.6378    9.4994   16.6227 C.3     1  <0>1        0.0167
      2 N1         11.7178    9.9474   15.5744 N.ar    1  <0>1       -0.2953
      3 C2         10.7792   10.9073   15.8590 C.ar    1  <0>1        0.1482
      4 C3          9.8819   11.3460   14.8619 C.ar    1  <0>1        0.0365
      5 C4          9.9467   10.8028   13.5576 C.ar    1  <0>1       -0.0367
      6 C5         10.8891    9.8500   13.2818 C.ar    1  <0>1        0.0479
      7 C6         11.8050    9.4168   14.3395 C.ar    1  <0>1        0.2603
      8 O1         12.6467    8.5687   14.1024 O.2     1  <0>1       -0.2670
      9 C7         10.9819    9.2608   11.9245 C.ar    1  <0>1       -0.0057
     10 C8          9.9441    8.4884   11.4110 C.ar    1  <0>1       -0.0468
     11 C9         10.0639    7.9720   10.1672 C.ar    1  <0>1       -0.0237
     12 S1         11.6760    8.5538    9.6692 S.2     1  <0>1       -0.1045
     13 C10        12.0917    9.4590   11.1504 C.ar    1  <0>1       -0.0165
     14 C11         8.9342   12.3245   15.1955 C.ar    1  <0>1        0.0418
     15 N2          8.9196   12.7956   16.4286 N.ar    1  <0>1       -0.2219
     16 C12         9.7798   12.3591   17.3417 C.ar    1  <0>1        0.2214
     17 N3         10.6916   11.4370   17.0741 N.ar    1  <0>1       -0.1961
     18 N4          9.7207   12.8864   18.6181 N.pl3   1  <0>1       -0.2836
     19 C13         8.8472   13.9412   18.8989 C.ar    1  <0>1        0.0336
     20 C14         8.5844   14.9034   17.9323 C.ar    1  <0>1       -0.0405
     21 C15         7.7166   15.9410   18.2110 C.ar    1  <0>1       -0.0600
     22 C16         7.1180   16.0286   19.4544 C.ar    1  <0>1       -0.0616
     23 C17         7.3823   15.0758   20.4211 C.ar    1  <0>1       -0.0600
     24 C18         8.2446   14.0325   20.1471 C.ar    1  <0>1       -0.0405
     25 H1         13.3102    8.7433   16.2173 H       1  <0>1        0.0457
     26 H2         13.2198   10.3478   16.9823 H       1  <0>1        0.0457
     27 H3         12.0679    9.0736   17.4486 H       1  <0>1        0.0457
     28 H4          9.2626   11.1352   12.7907 H       1  <0>1        0.0633
     29 H5          9.0544    8.3076   11.9959 H       1  <0>1        0.0629
     30 H6          9.3644    7.3601    9.6170 H       1  <0>1        0.0693
     31 H7         12.9876   10.0183   11.3765 H       1  <0>1        0.0699
     32 H8          8.2309   12.6847   14.4593 H       1  <0>1        0.0838
     33 H9         10.2853   12.5246   19.3190 H       1  <0>1        0.1550
     34 H10         9.0550   14.8380   16.9623 H       1  <0>1        0.0636
     35 H11         7.5086   16.6872   17.4584 H       1  <0>1        0.0618
     36 H12         6.4430   16.8433   19.6712 H       1  <0>1        0.0618
     37 H13         6.9134   15.1473   21.3915 H       1  <0>1        0.0618
     38 H14         8.4506   13.2886   20.9026 H       1  <0>1        0.0636
@<TRIPOS>BOND
     1     1     2    1
     2     1    25    1
     3     1    26    1
     4     1    27    1
     5     2     7   ar
     6     2     3   ar
     7     3    17   ar
     8     3     4   ar
     9     4     5   ar
    10     4    14   ar
    11     5     6   ar
    12     5    28    1
    13     6     7   ar
    14     6     9    1
    15     7     8    2
    16     9    13   ar
    17     9    10   ar
    18    10    11   ar
    19    10    29    1
    20    11    12   ar
    21    11    30    1
    22    12    13   ar
    23    13    31    1
    24    14    15   ar
    25    14    32    1
    26    15    16   ar
    27    16    17   ar
    28    16    18    1
    29    18    19    1
    30    18    33    1
    31    19    24   ar
    32    19    20   ar
    33    20    21   ar
    34    20    34    1
    35    21    22   ar
    36    21    35    1
    37    22    23   ar
    38    22    36    1
    39    23    24   ar
    40    23    37    1
    41    24    38    1
@<TRIPOS>MOLECULE
ZINC03832267
 35 37 0 0 0
SMALL
USER_CHARGES

@<TRIPOS>ATOM
      1 C1         15.0643   10.6828   15.4113 C.3     1  <0>1        0.0788
      2 O1         13.9164    9.8435   15.2707 O.3     1  <0>1       -0.4942
      3 C2         12.7043   10.4159   15.4860 C.ar    1  <0>1        0.1362
      4 C3         12.6248   11.7498   15.8234 C.ar    1  <0>1        0.0083
      5 C4         11.3770   12.3403   16.0454 C.ar    1  <0>1        0.0928
      6 C5         10.2054   11.5679   15.9230 C.ar    1  <0>1        0.0743
      7 C6         10.2857   10.2308   15.5854 C.ar    1  <0>1       -0.0182
      8 C7         11.5332    9.6469   15.3582 C.ar    1  <0>1        0.1026
      9 C8         11.6237    8.2242   14.9916 C.2     1  <0>1        0.3426
     10 O2         12.7100    7.7141   14.7994 O.2     1  <0>1       -0.2448
     11 O3         10.5019    7.4871   14.8692 O.3     1  <0>1       -0.4644
     12 C9         10.6668    6.0912   14.5051 C.3     1  <0>1        0.0820
     13 N1          9.1534   12.4267   16.2001 N.ar    1  <0>1       -0.2985
     14 C10         9.6909   13.6465   16.4723 C.ar    1  <0>1        0.1015
     15 N2         10.9891   13.5954   16.3818 N.ar    1  <0>1       -0.2353
     16 C11         7.7910   12.0996   16.2001 C.ar    1  <0>1        0.0481
     17 C12         7.2347   11.4367   15.1143 C.ar    1  <0>1       -0.0378
     18 C13         5.8928   11.1098   15.1203 C.ar    1  <0>1       -0.0598
     19 C14         5.1007   11.4533   16.2004 C.ar    1  <0>1       -0.0616
     20 C15         5.6506   12.1190   17.2806 C.ar    1  <0>1       -0.0598
     21 C16         6.9933   12.4428   17.2835 C.ar    1  <0>1       -0.0378
     22 H1         15.0000   11.5082   14.7022 H       1  <0>1        0.0660
     23 H2         15.1033   11.0781   16.4263 H       1  <0>1        0.0660
     24 H3         15.9653   10.1024   15.2126 H       1  <0>1        0.0660
     25 H4         13.5256   12.3386   15.9160 H       1  <0>1        0.0676
     26 H5          9.3862    9.6408   15.4916 H       1  <0>1        0.0648
     27 H6         11.1681    6.0244   13.5395 H       1  <0>1        0.0661
     28 H7         11.2675    5.5868   15.2620 H       1  <0>1        0.0661
     29 H8          9.6887    5.6146   14.4405 H       1  <0>1        0.0661
     30 H9          9.1233   14.5296   16.7261 H       1  <0>1        0.1032
     31 H10         7.8517   11.1727   14.2681 H       1  <0>1        0.0638
     32 H11         5.4607   10.5896   14.2781 H       1  <0>1        0.0618
     33 H12         4.0507   11.2009   16.2006 H       1  <0>1        0.0618
     34 H13         5.0295   12.3856   18.1229 H       1  <0>1        0.0618
     35 H14         7.4222   12.9621   18.1277 H       1  <0>1        0.0638
@<TRIPOS>BOND
     1     1     2    1
     2     1    22    1
     3     1    23    1
     4     1    24    1
     5     2     3    1
     6     3     8   ar
     7     3     4   ar
     8     4     5   ar
     9     4    25    1
    10     5    15   ar
    11     5     6   ar
    12     6     7   ar
    13     6    13   ar
    14     7     8   ar
    15     7    26    1
    16     8     9    1
    17     9    10    2
    18     9    11    1
    19    11    12    1
    20    12    27    1
    21    12    28    1
    22    12    29    1
    23    13    14   ar
    24    13    16    1
    25    14    15   ar
    26    14    30    1
    27    16    21   ar
    28    16    17   ar
    29    17    18   ar
    30    17    31    1
    31    18    19   ar
    32    18    32    1
    33    19    20   ar
    34    19    33    1
    35    20    21   ar
    36    20    34    1
    37    21    35    1
@<TRIPOS>MOLECULE
ZINC03832268
 38 41 0 0 0
SMALL
USER_CHARGES

@<TRIPOS>ATOM
      1 C1         12.8784   11.8776   14.2203 C.3     1  <0>1        0.0167
      2 N1         11.4729   11.4658   14.1895 N.ar    1  <0>1       -0.2953
      3 C2         11.1463   10.1533   14.4211 C.ar    1  <0>1        0.1482
      4 C3          9.7982    9.7349   14.3961 C.ar    1  <0>1        0.0365
      5 C4          8.7684   10.6666   14.1317 C.ar    1  <0>1       -0.0362
      6 C5          9.1059   11.9855   13.8998 C.ar    1  <0>1        0.0539
      7 C6         10.5182   12.3791   13.9284 C.ar    1  <0>1        0.2608
      8 O1         10.8289   13.5382   13.7200 O.2     1  <0>1       -0.2670
      9 C7          8.0575   12.9865   13.6203 C.ar    1  <0>1        0.0245
     10 C8          7.0548   13.4382   14.4381 C.ar    1  <0>1       -0.0468
     11 C9          6.1868   14.3929   13.9550 C.ar    1  <0>1       -0.0541
     12 C10         6.3433   14.8476   12.6854 C.ar    1  <0>1       -0.0237
     13 S1          7.7663   13.9243   12.1293 S.2     1  <0>1       -0.0965
     14 C11         9.5101    8.3833   14.6378 C.ar    1  <0>1        0.0418
     15 N2         10.5110    7.5571   14.8788 N.ar    1  <0>1       -0.2219
     16 C12        11.7679    7.9862   14.8946 C.ar    1  <0>1        0.2214
     17 N3         12.0890    9.2514   14.6723 N.ar    1  <0>1       -0.1961
     18 N4         12.7780    7.0785   15.1519 N.pl3   1  <0>1       -0.2836
     19 C13        12.4626    5.7626   15.5032 C.ar    1  <0>1        0.0336
     20 C14        11.3277    5.4970   16.2588 C.ar    1  <0>1       -0.0405
     21 C15        11.0161    4.1954   16.5998 C.ar    1  <0>1       -0.0600
     22 C16        11.8385    3.1584   16.1990 C.ar    1  <0>1       -0.0616
     23 C17        12.9721    3.4199   15.4515 C.ar    1  <0>1       -0.0600
     24 C18        13.2864    4.7185   15.1023 C.ar    1  <0>1       -0.0405
     25 H1         13.3068   11.7825   13.2225 H       1  <0>1        0.0457
     26 H2         12.9460   12.9151   14.5473 H       1  <0>1        0.0457
     27 H3         13.4283   11.2414   14.9139 H       1  <0>1        0.0457
     28 H4          7.7354   10.3523   14.1116 H       1  <0>1        0.0633
     29 H5          6.9496   13.0563   15.4429 H       1  <0>1        0.0629
     30 H6          5.3899   14.7726   14.5774 H       1  <0>1        0.0623
     31 H7          5.7597   15.5826   12.1509 H       1  <0>1        0.0693
     32 H8          8.4909    8.0262   14.6265 H       1  <0>1        0.0838
     33 H9         13.7058    7.3545   15.0887 H       1  <0>1        0.1550
     34 H10        10.6876    6.3069   16.5759 H       1  <0>1        0.0636
     35 H11        10.1317    3.9878   17.1838 H       1  <0>1        0.0618
     36 H12        11.5950    2.1419   16.4708 H       1  <0>1        0.0618
     37 H13        13.6122    2.6077   15.1401 H       1  <0>1        0.0618
     38 H14        14.1719    4.9222   14.5185 H       1  <0>1        0.0636
@<TRIPOS>BOND
     1     1     2    1
     2     1    25    1
     3     1    26    1
     4     1    27    1
     5     2     7   ar
     6     2     3   ar
     7     3    17   ar
     8     3     4   ar
     9     4     5   ar
    10     4    14   ar
    11     5     6   ar
    12     5    28    1
    13     6     7   ar
    14     6     9    1
    15     7     8    2
    16     9    13   ar
    17     9    10   ar
    18    10    11   ar
    19    10    29    1
    20    11    12   ar
    21    11    30    1
    22    12    13   ar
    23    12    31    1
    24    14    15   ar
    25    14    32    1
    26    15    16   ar
    27    16    17   ar
    28    16    18    1
    29    18    19    1
    30    18    33    1
    31    19    24   ar
    32    19    20   ar
    33    20    21   ar
    34    20    34    1
    35    21    22   ar
    36    21    35    1
    37    22    23   ar
    38    22    36    1
    39    23    24   ar
    40    23    37    1
    41    24    38    1
@<TRIPOS>MOLECULE
ZINC03834019
 39 41 0 0 0
SMALL
USER_CHARGES

@<TRIPOS>ATOM
      1 C1          8.3887   12.0684   11.8959 C.3     1  <0>1        0.0790
      2 O1          8.4907   10.7232   12.3673 O.3     1  <0>1       -0.4914
      3 C2          9.6200   10.3916   13.0474 C.ar    1  <0>1        0.1622
      4 C3         10.5878   11.3319   13.2486 C.ar    1  <0>1       -0.0071
      5 C4         11.7556   10.9889   13.9521 C.ar    1  <0>1        0.0046
      6 C5         12.7707   11.9328   14.1769 C.ar    1  <0>1       -0.0438
      7 C6         13.8991   11.5232   14.8814 C.ar    1  <0>1       -0.0063
      8 C7         13.9845   10.1953   15.3389 C.ar    1  <0>1        0.0354
      9 N1         13.0260    9.3331   15.1175 N.ar    1  <0>1       -0.2543
     10 C8         11.9177    9.6688   14.4463 C.ar    1  <0>1        0.0747
     11 C9         10.9022    8.7250   14.2218 C.ar    1  <0>1        0.0097
     12 C10         9.7788    9.0857   13.5351 C.ar    1  <0>1        0.1635
     13 O2          8.8007    8.1672   13.3213 O.3     1  <0>1       -0.4914
     14 C11         9.0187    6.8542   13.8414 C.3     1  <0>1        0.0790
     15 C12        14.9920   12.4737   15.1510 C.2     1  <0>1       -0.0526
     16 C13        16.0757   12.0739   15.8362 C.2     1  <0>1       -0.0540
     17 C14        17.1690   13.0246   16.1060 C.ar    1  <0>1       -0.0250
     18 C15        17.0841   14.3413   15.6456 C.ar    1  <0>1       -0.0546
     19 C16        18.1087   15.2268   15.9065 C.ar    1  <0>1       -0.0612
     20 C17        19.2238   14.8113   16.6128 C.ar    1  <0>1       -0.0617
     21 C18        19.3172   13.5076   17.0674 C.ar    1  <0>1       -0.0612
     22 C19        18.2982   12.6123   16.8186 C.ar    1  <0>1       -0.0546
     23 H1          8.4331   12.7542   12.7419 H       1  <0>1        0.0660
     24 H2          9.2132   12.2781   11.2145 H       1  <0>1        0.0660
     25 H3          7.4419   12.1988   11.3717 H       1  <0>1        0.0660
     26 H4         10.4576   12.3346   12.8692 H       1  <0>1        0.0662
     27 H5         12.6785   12.9459   13.8144 H       1  <0>1        0.0630
     28 H6         14.8615    9.8807   15.8849 H       1  <0>1        0.0836
     29 H7         11.0102    7.7158   14.5911 H       1  <0>1        0.0677
     30 H8          8.1639    6.2218   13.6015 H       1  <0>1        0.0660
     31 H9          9.9195    6.4318   13.3959 H       1  <0>1        0.0660
     32 H10         9.1391    6.9073   14.9234 H       1  <0>1        0.0660
     33 H11        14.9217   13.4918   14.7978 H       1  <0>1        0.0624
     34 H12        16.1459   11.0558   16.1896 H       1  <0>1        0.0624
     35 H13        16.2166   14.6656   15.0900 H       1  <0>1        0.0623
     36 H14        18.0429   16.2457   15.5545 H       1  <0>1        0.0618
     37 H15        20.0250   15.5080   16.8105 H       1  <0>1        0.0618
     38 H16        20.1906   13.1905   17.6180 H       1  <0>1        0.0618
     39 H17        18.3724   11.5952   17.1741 H       1  <0>1        0.0623
@<TRIPOS>BOND
     1     1     2    1
     2     1    23    1
     3     1    24    1
     4     1    25    1
     5     2     3    1
     6     3    12   ar
     7     3     4   ar
     8     4     5   ar
     9     4    26    1
    10     5    10   ar
    11     5     6   ar
    12     6     7   ar
    13     6    27    1
    14     7     8   ar
    15     7    15    1
    16     8     9   ar
    17     8    28    1
    18     9    10   ar
    19    10    11   ar
    20    11    12   ar
    21    11    29    1
    22    12    13    1
    23    13    14    1
    24    14    30    1
    25    14    31    1
    26    14    32    1
    27    15    16    2
    28    15    33    1
    29    16    17    1
    30    16    34    1
    31    17    22   ar
    32    17    18   ar
    33    18    19   ar
    34    18    35    1
    35    19    20   ar
    36    19    36    1
    37    20    21   ar
    38    20    37    1
    39    21    22   ar
    40    21    38    1
    41    22    39    1
@<TRIPOS>MOLECULE
ZINC03834020
 51 54 0 0 0
SMALL
USER_CHARGES

@<TRIPOS>ATOM
      1 C1          6.4386   11.2600   18.5103 C.3     1  <0>1       -0.0375
      2 C2          7.4886   11.7187   17.5315 C.ar    1  <0>1       -0.0223
      3 C3          7.5465   12.9615   16.8982 C.ar    1  <0>1       -0.0231
      4 C4          8.6443   12.9746   16.1019 C.ar    1  <0>1        0.0167
      5 N1          9.2769   11.7785   16.2029 N.ar    1  <0>1       -0.3581
      6 H1         10.0867   11.5249   15.7330 H       1  <0>1        0.1656
      7 C5          8.5765   10.9839   17.0851 C.ar    1  <0>1        0.0434
      8 C6          8.9061    9.6665   17.4644 C.2     1  <0>1       -0.0254
      9 C7          9.5043    8.8146   16.5549 C.2     1  <0>1        0.0479
     10 C8         10.0570    7.4672   16.8136 C.ar    1  <0>1        0.0084
     11 C9         10.1380    6.6748   17.9562 C.ar    1  <0>1       -0.0515
     12 C10        10.7168    5.4272   17.8863 C.ar    1  <0>1       -0.0533
     13 C11        11.2154    4.9564   16.6700 C.ar    1  <0>1       -0.0161
     14 C12        11.1316    5.7416   15.5242 C.ar    1  <0>1       -0.0322
     15 C13        10.5497    7.0003   15.5860 C.ar    1  <0>1        0.0421
     16 N2         10.3425    7.9710   14.6128 N.am    1  <0>1       -0.2809
     17 C14         9.7340    9.0544   15.1242 C.2     1  <0>1        0.2490
     18 O1          9.4272   10.0599   14.5088 O.2     1  <0>1       -0.2698
     19 C15        11.8380    3.6123   16.5988 C.ar    1  <0>1       -0.0178
     20 C16        12.3331    3.1338   15.3869 C.ar    1  <0>1       -0.0540
     21 C17        12.9166    1.8847   15.3280 C.ar    1  <0>1       -0.0612
     22 C18        13.0005    1.1031   16.4662 C.ar    1  <0>1       -0.0617
     23 C19        12.5058    1.5704   17.6706 C.ar    1  <0>1       -0.0612
     24 C20        11.9253    2.8204   17.7426 C.ar    1  <0>1       -0.0540
     25 C21         9.0862   14.1285   15.2391 C.3     1  <0>1       -0.0242
     26 C22         6.5638   14.0909   17.0716 C.3     1  <0>1       -0.0157
     27 C23         7.0202   14.9921   18.2208 C.3     1  <0>1        0.0488
     28 C24         6.0376   16.1215   18.3940 C.2     1  <0>1        0.3050
     29 O2          5.0715   16.1979   17.6725 O.2     1  <0>1       -0.2510
     30 H2          6.7504   11.5144   19.5234 H       1  <0>1        0.0278
     31 H3          6.3131   10.1803   18.4292 H       1  <0>1        0.0278
     32 H4          5.4929   11.7536   18.2865 H       1  <0>1        0.0278
     33 H5          8.6913    9.3231   18.4655 H       1  <0>1        0.0646
     34 H6          9.7520    7.0401   18.8964 H       1  <0>1        0.0624
     35 H7         10.7855    4.8133   18.7722 H       1  <0>1        0.0624
     36 H8         11.5198    5.3717   14.5867 H       1  <0>1        0.0642
     37 H9         10.6039    7.8781   13.6834 H       1  <0>1        0.1552
     38 H10        12.2640    3.7413   14.4966 H       1  <0>1        0.0624
     39 H11        13.3045    1.5146   14.3904 H       1  <0>1        0.0618
     40 H12        13.4543    0.1244   16.4146 H       1  <0>1        0.0618
     41 H13        12.5737    0.9558   18.5560 H       1  <0>1        0.0618
     42 H14        11.5397    3.1844   18.6835 H       1  <0>1        0.0624
     43 H15         8.6280   14.0418   14.2539 H       1  <0>1        0.0292
     44 H16         8.7789   15.0664   15.7015 H       1  <0>1        0.0292
     45 H17        10.1714   14.1116   15.1378 H       1  <0>1        0.0292
     46 H18         6.5134   14.6730   16.1514 H       1  <0>1        0.0319
     47 H19         5.5786   13.6837   17.2983 H       1  <0>1        0.0319
     48 H20         7.0706   14.4099   19.1409 H       1  <0>1        0.0381
     49 H21         8.0055   15.3992   17.9939 H       1  <0>1        0.0381
     50 O3          6.2356   17.0426   19.3501 O.3     1  <0>1       -0.4806
     51 H           6.9849   16.9834   19.9096 H       1  <0>1        0.2951
@<TRIPOS>BOND
     1     1     2    1
     2     1    30    1
     3     1    31    1
     4     1    32    1
     5     2     7   ar
     6     2     3   ar
     7     3     4   ar
     8     3    26    1
     9     4     5   ar
    10     4    25    1
    11     5     6    1
    12     5     7   ar
    13     7     8    1
    14     8     9    2
    15     8    33    1
    16     9    17    1
    17     9    10    1
    18    10    15   ar
    19    10    11   ar
    20    11    12   ar
    21    11    34    1
    22    12    13   ar
    23    12    35    1
    24    13    14   ar
    25    13    19    1
    26    14    15   ar
    27    14    36    1
    28    15    16    1
    29    16    17   am
    30    16    37    1
    31    17    18    2
    32    19    24   ar
    33    19    20   ar
    34    20    21   ar
    35    20    38    1
    36    21    22   ar
    37    21    39    1
    38    22    23   ar
    39    22    40    1
    40    23    24   ar
    41    23    41    1
    42    24    42    1
    43    25    43    1
    44    25    44    1
    45    25    45    1
    46    26    27    1
    47    26    46    1
    48    26    47    1
    49    27    28    1
    50    27    48    1
    51    27    49    1
    52    28    29    2
    53    28    50    1
    54    50    51    1
@<TRIPOS>MOLECULE
ZINC03834021
 24 26 0 0 0
SMALL
USER_CHARGES

@<TRIPOS>ATOM
      1 C1          9.8747   12.7297   14.0363 C.ar    1  <0>1       -0.0498
      2 C2         10.6225   12.1958   13.0322 C.ar    1  <0>1       -0.0258
      3 C3         11.3176   11.0000   13.2167 C.ar    1  <0>1        0.1254
      4 C4         11.2671   10.3338   14.4053 C.ar    1  <0>1       -0.0005
      5 C5         10.5056   10.8540   15.4651 C.ar    1  <0>1        0.0737
      6 C6          9.8008   12.0696   15.2745 C.ar    1  <0>1        0.0011
      7 C7          9.0333   12.5883   16.3318 C.ar    1  <0>1       -0.0434
      8 C8          9.0113   11.8843   17.5266 C.ar    1  <0>1        0.0013
      9 C9          9.7364   10.6871   17.6380 C.ar    1  <0>1        0.0360
     10 N1         10.4410   10.2177   16.6399 N.ar    1  <0>1       -0.2543
     11 C10         8.2222   12.3896   18.6769 C.ar    1  <0>1       -0.0094
     12 C11         8.1879   11.6891   19.8790 C.ar    1  <0>1       -0.0470
     13 C12         7.4570   12.1813   20.9045 C.ar    1  <0>1       -0.0237
     14 S1          6.7731   13.6719   20.2007 S.2     1  <0>1       -0.1045
     15 C13         7.5120   13.5536   18.5801 C.ar    1  <0>1       -0.0166
     16 F1         12.0519   10.4941   12.2017 F       1  <0>1       -0.2054
     17 H1          9.3406   13.6556   13.8821 H       1  <0>1        0.0625
     18 H2         10.6790   12.7042   12.0810 H       1  <0>1        0.0646
     19 H3         11.8104    9.4090   14.5316 H       1  <0>1        0.0668
     20 H4          8.4806   13.5092   16.2184 H       1  <0>1        0.0631
     21 H5          9.7118   10.1406   18.5692 H       1  <0>1        0.0836
     22 H6          8.7372   10.7660   19.9910 H       1  <0>1        0.0629
     23 H7          7.3186   11.7738   21.8951 H       1  <0>1        0.0693
     24 H8          7.4191   14.2255   17.7397 H       1  <0>1        0.0699
@<TRIPOS>BOND
     1     1     6   ar
     2     1     2   ar
     3     1    17    1
     4     2     3   ar
     5     2    18    1
     6     3     4   ar
     7     3    16    1
     8     4     5   ar
     9     4    19    1
    10     5    10   ar
    11     5     6   ar
    12     6     7   ar
    13     7     8   ar
    14     7    20    1
    15     8     9   ar
    16     8    11    1
    17     9    10   ar
    18     9    21    1
    19    11    15   ar
    20    11    12   ar
    21    12    13   ar
    22    12    22    1
    23    13    14   ar
    24    13    23    1
    25    14    15   ar
    26    15    24    1
@<TRIPOS>MOLECULE
ZINC03834022
 32 34 0 0 0
SMALL
USER_CHARGES

@<TRIPOS>ATOM
      1 C1         11.7280    8.0277   14.9141 C.3     1  <0>1        0.0790
      2 O1         11.8313    8.9226   13.8048 O.3     1  <0>1       -0.4914
      3 C2         11.1975   10.1201   13.9168 C.ar    1  <0>1        0.1622
      4 C3         10.5047   10.4135   15.0551 C.ar    1  <0>1       -0.0071
      5 C4          9.8495   11.6515   15.1708 C.ar    1  <0>1        0.0047
      6 C5          9.1280   11.9855   16.3290 C.ar    1  <0>1       -0.0427
      7 C6          8.5053   13.2274   16.3745 C.ar    1  <0>1        0.0088
      8 C7          8.6160   14.0971   15.2755 C.ar    1  <0>1        0.0365
      9 N1          9.2929   13.7655   14.2059 N.ar    1  <0>1       -0.2542
     10 C8          9.9134   12.5844   14.1039 C.ar    1  <0>1        0.0747
     11 C9         10.6356   12.2509   12.9460 C.ar    1  <0>1        0.0097
     12 C10        11.2619   11.0413   12.8606 C.ar    1  <0>1        0.1635
     13 O2         11.9578   10.7249   11.7372 O.3     1  <0>1       -0.4914
     14 C11        11.9877   11.7028   10.6956 C.3     1  <0>1        0.0790
     15 C12         7.7337   13.6305   17.5684 C.ar    1  <0>1        0.0391
     16 C13         6.7946   12.9207   18.2694 C.ar    1  <0>1        0.0558
     17 C14         6.2003   13.5107   19.3643 C.ar    1  <0>1       -0.0357
     18 C15         6.5619   14.7720   19.7135 C.ar    1  <0>1       -0.0223
     19 S1          7.7883   15.1661   18.4775 S.2     1  <0>1       -0.0951
     20 Cl1         6.3620   11.3097   17.7886 Cl      1  <0>1       -0.0824
     21 H1         12.1484    8.4997   15.8021 H       1  <0>1        0.0660
     22 H2         10.6795    7.7886   15.0916 H       1  <0>1        0.0660
     23 H3         12.2774    7.1121   14.6946 H       1  <0>1        0.0660
     24 H4         10.4599    9.6981   15.8628 H       1  <0>1        0.0662
     25 H5          9.0594   11.2982   17.1591 H       1  <0>1        0.0631
     26 H6          8.1308   15.0611   15.3149 H       1  <0>1        0.0836
     27 H7         10.6941   12.9497   12.1246 H       1  <0>1        0.0677
     28 H8         12.5751   11.3246    9.8589 H       1  <0>1        0.0660
     29 H9         10.9709   11.9092   10.3617 H       1  <0>1        0.0660
     30 H10        12.4400   12.6205   11.0717 H       1  <0>1        0.0660
     31 H11         5.4568   12.9766   19.9372 H       1  <0>1        0.0638
     32 H12         6.2035   15.3790   20.5317 H       1  <0>1        0.0694
@<TRIPOS>BOND
     1     1     2    1
     2     1    21    1
     3     1    22    1
     4     1    23    1
     5     2     3    1
     6     3    12   ar
     7     3     4   ar
     8     4     5   ar
     9     4    24    1
    10     5    10   ar
    11     5     6   ar
    12     6     7   ar
    13     6    25    1
    14     7     8   ar
    15     7    15    1
    16     8     9   ar
    17     8    26    1
    18     9    10   ar
    19    10    11   ar
    20    11    12   ar
    21    11    27    1
    22    12    13    1
    23    13    14    1
    24    14    28    1
    25    14    29    1
    26    14    30    1
    27    15    19   ar
    28    15    16   ar
    29    16    17   ar
    30    16    20    1
    31    17    18   ar
    32    17    31    1
    33    18    19   ar
    34    18    32    1
@<TRIPOS>MOLECULE
ZINC03834023
 24 26 0 0 0
SMALL
USER_CHARGES

@<TRIPOS>ATOM
      1 C1          6.6181   13.6811   20.6063 C.ar    1  <0>1       -0.0570
      2 C2          6.7029   14.3054   19.3993 C.ar    1  <0>1       -0.0356
      3 C3          7.4793   13.7412   18.3728 C.ar    1  <0>1        0.0737
      4 C4          8.1634   12.5238   18.6176 C.ar    1  <0>1        0.0361
      5 C5          8.9358   11.9546   17.5909 C.ar    1  <0>1       -0.0406
      6 C6          9.0006   12.6239   16.3775 C.ar    1  <0>1        0.0014
      7 C7          8.2944   13.8261   16.2120 C.ar    1  <0>1        0.0360
      8 N1          7.5763   14.3374   17.1793 N.ar    1  <0>1       -0.2543
      9 C8          9.8056   12.0704   15.2611 C.ar    1  <0>1       -0.0094
     10 C9          9.8739   12.7300   14.0377 C.ar    1  <0>1       -0.0470
     11 C10        10.6185   12.1945   13.0442 C.ar    1  <0>1       -0.0237
     12 S1         11.2621   10.7158   13.8086 S.2     1  <0>1       -0.1045
     13 C11        10.5019   10.9037   15.4125 C.ar    1  <0>1       -0.0166
     14 C12         8.0537   11.9058   19.8767 C.ar    1  <0>1        0.1326
     15 C13         7.2900   12.4855   20.8469 C.ar    1  <0>1       -0.0257
     16 F1          8.7002   10.7453   20.1231 F       1  <0>1       -0.2048
     17 H1          6.0197   14.1209   21.3905 H       1  <0>1        0.0619
     18 H2          6.1744   15.2321   19.2310 H       1  <0>1        0.0639
     19 H3          9.4660   11.0262   17.7432 H       1  <0>1        0.0631
     20 H4          8.3452   14.3411   15.2641 H       1  <0>1        0.0836
     21 H5          9.3402   13.6563   13.8841 H       1  <0>1        0.0629
     22 H6         10.7822   12.5667   12.0436 H       1  <0>1        0.0693
     23 H7         10.5724   10.2614   16.2779 H       1  <0>1        0.0699
     24 H8          7.2052   12.0112   21.8135 H       1  <0>1        0.0646
@<TRIPOS>BOND
     1     1    15   ar
     2     1     2   ar
     3     1    17    1
     4     2     3   ar
     5     2    18    1
     6     3     8   ar
     7     3     4   ar
     8     4     5   ar
     9     4    14   ar
    10     5     6   ar
    11     5    19    1
    12     6     7   ar
    13     6     9    1
    14     7     8   ar
    15     7    20    1
    16     9    13   ar
    17     9    10   ar
    18    10    11   ar
    19    10    21    1
    20    11    12   ar
    21    11    22    1
    22    12    13   ar
    23    13    23    1
    24    14    15   ar
    25    14    16    1
    26    15    24    1
@<TRIPOS>MOLECULE
ZINC03834024
 35 37 0 0 0
SMALL
USER_CHARGES

@<TRIPOS>ATOM
      1 C1          7.8346   10.7540   22.2612 C.3     1  <0>1        0.0790
      2 O1          7.1284   11.9796   22.0576 O.3     1  <0>1       -0.4914
      3 C2          7.2448   12.5633   20.8353 C.ar    1  <0>1        0.1622
      4 C3          8.0122   11.9717   19.8749 C.ar    1  <0>1       -0.0071
      5 C4          8.1329   12.5753   18.6116 C.ar    1  <0>1        0.0046
      6 C5          8.9100   11.9897   17.5979 C.ar    1  <0>1       -0.0433
      7 C6          8.9881   12.6438   16.3767 C.ar    1  <0>1        0.0009
      8 C7          8.2896   13.8467   16.1904 C.ar    1  <0>1        0.0360
      9 N1          7.5663   14.3740   17.1456 N.ar    1  <0>1       -0.2543
     10 C8          7.4565   13.7935   18.3459 C.ar    1  <0>1        0.0747
     11 C9          6.6743   14.3764   19.3568 C.ar    1  <0>1        0.0097
     12 C10         6.5748   13.7682   20.5746 C.ar    1  <0>1        0.1635
     13 O2          5.8162   14.3371   21.5477 O.3     1  <0>1       -0.4914
     14 C11         5.1577   15.5631   21.2233 C.3     1  <0>1        0.0790
     15 C12         9.7993   12.0723   15.2738 C.ar    1  <0>1       -0.0137
     16 C13         9.8713   12.7287   14.0462 C.ar    1  <0>1       -0.0538
     17 C14        10.6274   12.1940   13.0230 C.ar    1  <0>1       -0.0585
     18 C15        11.3135   11.0082   13.2127 C.ar    1  <0>1       -0.0264
     19 C16        11.2466   10.3510   14.4303 C.ar    1  <0>1        0.1240
     20 C17        10.4920   10.8784   15.4617 C.ar    1  <0>1       -0.0187
     21 F1         11.9193    9.1932   14.6100 F       1  <0>1       -0.2055
     22 H1          7.4839   10.0095   21.5465 H       1  <0>1        0.0660
     23 H2          8.9020   10.9215   22.1171 H       1  <0>1        0.0660
     24 H3          7.6566   10.3963   23.2753 H       1  <0>1        0.0660
     25 H4          8.5247   11.0444   20.0845 H       1  <0>1        0.0662
     26 H5          9.4343   11.0605   17.7656 H       1  <0>1        0.0631
     27 H6          8.3501   14.3491   15.2364 H       1  <0>1        0.0836
     28 H7          6.1525   15.3035   19.1707 H       1  <0>1        0.0677
     29 H8          5.9003   16.3143   20.9541 H       1  <0>1        0.0660
     30 H9          4.4829   15.4018   20.3826 H       1  <0>1        0.0660
     31 H10         4.5876   15.9086   22.0857 H       1  <0>1        0.0660
     32 H11         9.3324   13.6522   13.8945 H       1  <0>1        0.0624
     33 H12        10.6832   12.7026   12.0719 H       1  <0>1        0.0619
     34 H13        11.9036   10.5934   12.4089 H       1  <0>1        0.0646
     35 H14        10.4397   10.3661   16.4110 H       1  <0>1        0.0652
@<TRIPOS>BOND
     1     1     2    1
     2     1    22    1
     3     1    23    1
     4     1    24    1
     5     2     3    1
     6     3    12   ar
     7     3     4   ar
     8     4     5   ar
     9     4    25    1
    10     5    10   ar
    11     5     6   ar
    12     6     7   ar
    13     6    26    1
    14     7     8   ar
    15     7    15    1
    16     8     9   ar
    17     8    27    1
    18     9    10   ar
    19    10    11   ar
    20    11    12   ar
    21    11    28    1
    22    12    13    1
    23    13    14    1
    24    14    29    1
    25    14    30    1
    26    14    31    1
    27    15    20   ar
    28    15    16   ar
    29    16    17   ar
    30    16    32    1
    31    17    18   ar
    32    17    33    1
    33    18    19   ar
    34    18    34    1
    35    19    20   ar
    36    19    21    1
    37    20    35    1
@<TRIPOS>MOLECULE
ZINC03834025
 36 38 0 0 0
SMALL
USER_CHARGES

@<TRIPOS>ATOM
      1 C1          7.8298   10.7596   22.2607 C.3     1  <0>1        0.0790
      2 O1          7.1237   11.9849   22.0556 O.3     1  <0>1       -0.4914
      3 C2          7.2411   12.5676   20.8330 C.ar    1  <0>1        0.1622
      4 C3          8.0091   11.9753   19.8736 C.ar    1  <0>1       -0.0071
      5 C4          8.1308   12.5779   18.6098 C.ar    1  <0>1        0.0046
      6 C5          8.9136   11.9947   17.5992 C.ar    1  <0>1       -0.0433
      7 C6          8.9876   12.6446   16.3754 C.ar    1  <0>1        0.0008
      8 C7          8.2892   13.8475   16.1877 C.ar    1  <0>1        0.0360
      9 N1          7.5652   14.3755   17.1421 N.ar    1  <0>1       -0.2543
     10 C8          7.4546   13.7959   18.3428 C.ar    1  <0>1        0.0747
     11 C9          6.6716   14.3796   19.3526 C.ar    1  <0>1        0.0097
     12 C10         6.5713   13.7723   20.5707 C.ar    1  <0>1        0.1635
     13 O2          5.8120   14.3422   21.5429 O.3     1  <0>1       -0.4914
     14 C11         5.1537   15.5679   21.2171 C.3     1  <0>1        0.0790
     15 C12         9.7994   12.0723   15.2737 C.ar    1  <0>1       -0.0162
     16 C13        10.4961   10.8804   15.4657 C.ar    1  <0>1       -0.0505
     17 C14        11.2457   10.3482   14.4378 C.ar    1  <0>1       -0.0196
     18 C15        11.3154   11.0038   13.2160 C.ar    1  <0>1        0.1169
     19 C16        10.6271   12.1941   13.0235 C.ar    1  <0>1       -0.0196
     20 C17         9.8716   12.7285   14.0459 C.ar    1  <0>1       -0.0505
     21 O3         12.0589   10.4796   12.2067 O.3     1  <0>1       -0.5068
     22 H1          7.6511   10.4027   23.2749 H       1  <0>1        0.0660
     23 H2          7.4795   10.0146   21.5463 H       1  <0>1        0.0660
     24 H3          8.8973   10.9269   22.1171 H       1  <0>1        0.0660
     25 H4          8.5214   11.0481   20.0843 H       1  <0>1        0.0662
     26 H5          9.4416   11.0681   17.7696 H       1  <0>1        0.0631
     27 H6          8.3470   14.3471   15.2320 H       1  <0>1        0.0836
     28 H7          6.1500   15.3065   19.1654 H       1  <0>1        0.0677
     29 H8          4.4795   15.4059   20.3761 H       1  <0>1        0.0660
     30 H9          4.5831   15.9141   22.0789 H       1  <0>1        0.0660
     31 H10         5.8965   16.3188   20.9479 H       1  <0>1        0.0660
     32 H11        10.4459   10.3723   16.4175 H       1  <0>1        0.0625
     33 H12        11.7821    9.4225   14.5846 H       1  <0>1        0.0654
     34 H13        10.6832   12.7018   12.0719 H       1  <0>1        0.0654
     35 H14         9.3368   13.6546   13.8956 H       1  <0>1        0.0625
     36 H15        12.9778   10.7806   12.1979 H       1  <0>1        0.2921
@<TRIPOS>BOND
     1     1     2    1
     2     1    22    1
     3     1    23    1
     4     1    24    1
     5     2     3    1
     6     3    12   ar
     7     3     4   ar
     8     4     5   ar
     9     4    25    1
    10     5    10   ar
    11     5     6   ar
    12     6     7   ar
    13     6    26    1
    14     7     8   ar
    15     7    15    1
    16     8     9   ar
    17     8    27    1
    18     9    10   ar
    19    10    11   ar
    20    11    12   ar
    21    11    28    1
    22    12    13    1
    23    13    14    1
    24    14    29    1
    25    14    30    1
    26    14    31    1
    27    15    20   ar
    28    15    16   ar
    29    16    17   ar
    30    16    32    1
    31    17    18   ar
    32    17    33    1
    33    18    19   ar
    34    18    21    1
    35    19    20   ar
    36    19    34    1
    37    20    35    1
    38    21    36    1
@<TRIPOS>MOLECULE
ZINC03834026
 32 34 0 0 0
SMALL
USER_CHARGES

@<TRIPOS>ATOM
      1 C1         13.4567    9.9508   14.6714 C.3     1  <0>1        0.0788
      2 O1         12.5921   10.6567   13.7791 O.3     1  <0>1       -0.4949
      3 C2         11.5963   11.3922   14.3382 C.ar    1  <0>1        0.1256
      4 C3         11.4640   11.4259   15.7087 C.ar    1  <0>1        0.0062
      5 C4         10.4367   12.1849   16.2917 C.ar    1  <0>1        0.0780
      6 C5          9.5497   12.9055   15.4523 C.ar    1  <0>1        0.0428
      7 C6          8.5226   13.6645   16.0350 C.ar    1  <0>1       -0.0399
      8 C7          8.4205   13.6698   17.4192 C.ar    1  <0>1        0.0014
      9 C8          9.3395   12.9350   18.1833 C.ar    1  <0>1        0.0360
     10 N1         10.2908   12.2325   17.6210 N.ar    1  <0>1       -0.2541
     11 C9          7.3498   14.4509   18.0863 C.ar    1  <0>1       -0.0094
     12 C10         7.2401   14.4675   19.4735 C.ar    1  <0>1       -0.0470
     13 C11         6.2510   15.1912   20.0448 C.ar    1  <0>1       -0.0237
     14 S1          5.4236   15.8879   18.6253 S.2     1  <0>1       -0.1045
     15 C12         6.4523   15.1751   17.3526 C.ar    1  <0>1       -0.0166
     16 C13         9.7109   12.8507   14.0523 C.ar    1  <0>1        0.1327
     17 C14        10.7203   12.1037   13.5157 C.ar    1  <0>1        0.0225
     18 O2          8.8656   13.5373   13.2415 O.3     1  <0>1       -0.4943
     19 C15         9.0901   13.4344   11.8341 C.3     1  <0>1        0.0788
     20 H1         13.9529   10.6601   15.3336 H       1  <0>1        0.0660
     21 H2         12.8714    9.2482   15.2645 H       1  <0>1        0.0660
     22 H3         14.2052    9.4055   14.0965 H       1  <0>1        0.0660
     23 H4         12.1489   10.8711   16.3329 H       1  <0>1        0.0676
     24 H5          7.8303   14.2247   15.4243 H       1  <0>1        0.0632
     25 H6          9.2576   12.9453   19.2602 H       1  <0>1        0.0836
     26 H7          7.9349   13.9108   20.0848 H       1  <0>1        0.0629
     27 H8          6.0206   15.3158   21.0926 H       1  <0>1        0.0693
     28 H9          6.3826   15.2857   16.2806 H       1  <0>1        0.0699
     29 H10        10.8425   12.0630   12.4434 H       1  <0>1        0.0691
     30 H11        10.0879   13.8038   11.5973 H       1  <0>1        0.0660
     31 H12         9.0068   12.3915   11.5282 H       1  <0>1        0.0660
     32 H13         8.3469   14.0292   11.3031 H       1  <0>1        0.0660
@<TRIPOS>BOND
     1     1     2    1
     2     1    20    1
     3     1    21    1
     4     1    22    1
     5     2     3    1
     6     3    17   ar
     7     3     4   ar
     8     4     5   ar
     9     4    23    1
    10     5    10   ar
    11     5     6   ar
    12     6     7   ar
    13     6    16   ar
    14     7     8   ar
    15     7    24    1
    16     8     9   ar
    17     8    11    1
    18     9    10   ar
    19     9    25    1
    20    11    15   ar
    21    11    12   ar
    22    12    13   ar
    23    12    26    1
    24    13    14   ar
    25    13    27    1
    26    14    15   ar
    27    15    28    1
    28    16    17   ar
    29    16    18    1
    30    17    29    1
    31    18    19    1
    32    19    30    1
    33    19    31    1
    34    19    32    1
@<TRIPOS>MOLECULE
ZINC03834028
 35 37 0 0 0
SMALL
USER_CHARGES

@<TRIPOS>ATOM
      1 C1          9.9488   12.7984   11.3794 C.3     1  <0>1        0.0790
      2 O1         10.8755   12.0505   12.1694 O.3     1  <0>1       -0.4914
      3 C2         10.7200   12.1038   13.5188 C.ar    1  <0>1        0.1622
      4 C3          9.7110   12.8506   14.0532 C.ar    1  <0>1       -0.0071
      5 C4          9.5506   12.9060   15.4482 C.ar    1  <0>1        0.0046
      6 C5          8.5220   13.6652   16.0316 C.ar    1  <0>1       -0.0433
      7 C6          8.4190   13.6683   17.4153 C.ar    1  <0>1        0.0008
      8 C7          9.3392   12.9338   18.1791 C.ar    1  <0>1        0.0360
      9 N1         10.2910   12.2326   17.6170 N.ar    1  <0>1       -0.2543
     10 C8         10.4379   12.1855   16.2881 C.ar    1  <0>1        0.0747
     11 C9         11.4663   11.4260   15.7056 C.ar    1  <0>1        0.0097
     12 C10        11.5990   11.3906   14.3478 C.ar    1  <0>1        0.1635
     13 O2         12.5959   10.6540   13.7910 O.3     1  <0>1       -0.4914
     14 C11        13.4591    9.9492   14.6856 C.3     1  <0>1        0.0790
     15 C12         7.3475   14.4475   18.0828 C.ar    1  <0>1       -0.0162
     16 C13         6.4388   15.1806   17.3217 C.ar    1  <0>1       -0.0513
     17 C14         5.4407   15.8996   17.9466 C.ar    1  <0>1       -0.0259
     18 C15         5.3476   15.9024   19.3290 C.ar    1  <0>1        0.1234
     19 C16         6.2521   15.1794   20.0897 C.ar    1  <0>1       -0.0259
     20 C17         7.2502   14.4533   19.4732 C.ar    1  <0>1       -0.0513
     21 F1          4.3719   16.6121   19.9369 F       1  <0>1       -0.2055
     22 H1          8.9369   12.4419   11.5719 H       1  <0>1        0.0660
     23 H2         10.0179   13.8543   11.6408 H       1  <0>1        0.0660
     24 H3         10.1847   12.6693   10.3231 H       1  <0>1        0.0660
     25 H4          9.0388   13.3961   13.4075 H       1  <0>1        0.0662
     26 H5          7.8294   14.2255   15.4211 H       1  <0>1        0.0631
     27 H6          9.2573   12.9436   19.2560 H       1  <0>1        0.0836
     28 H7         12.1502   10.8712   16.3310 H       1  <0>1        0.0677
     29 H8         13.9543   10.6595   15.3476 H       1  <0>1        0.0660
     30 H9         12.8728    9.2476   15.2788 H       1  <0>1        0.0660
     31 H10        14.2085    9.4031   14.1127 H       1  <0>1        0.0660
     32 H11         6.5133   15.1825   16.2443 H       1  <0>1        0.0624
     33 H12         4.7336   16.4646   17.3574 H       1  <0>1        0.0646
     34 H13         6.1760   15.1844   21.1670 H       1  <0>1        0.0646
     35 H14         7.9553   13.8905   20.0669 H       1  <0>1        0.0624
@<TRIPOS>BOND
     1     1     2    1
     2     1    22    1
     3     1    23    1
     4     1    24    1
     5     2     3    1
     6     3    12   ar
     7     3     4   ar
     8     4     5   ar
     9     4    25    1
    10     5    10   ar
    11     5     6   ar
    12     6     7   ar
    13     6    26    1
    14     7     8   ar
    15     7    15    1
    16     8     9   ar
    17     8    27    1
    18     9    10   ar
    19    10    11   ar
    20    11    12   ar
    21    11    28    1
    22    12    13    1
    23    13    14    1
    24    14    29    1
    25    14    30    1
    26    14    31    1
    27    15    20   ar
    28    15    16   ar
    29    16    17   ar
    30    16    32    1
    31    17    18   ar
    32    17    33    1
    33    18    19   ar
    34    18    21    1
    35    19    20   ar
    36    19    34    1
    37    20    35    1
@<TRIPOS>MOLECULE
ZINC03834029
 37 39 0 0 0
SMALL
USER_CHARGES

@<TRIPOS>ATOM
      1 C1         12.4948    5.8404   15.3545 C.3     1  <0>1        0.0790
      2 O1         12.8006    6.4274   14.0881 O.3     1  <0>1       -0.4914
      3 C2         12.3461    7.6892   13.8669 C.ar    1  <0>1        0.1622
      4 C3         11.6336    8.3302   14.8378 C.ar    1  <0>1       -0.0071
      5 C4         11.1639    9.6353   14.6090 C.ar    1  <0>1        0.0052
      6 C5         10.4274   10.3231   15.5869 C.ar    1  <0>1       -0.0355
      7 C6          9.9937   11.6124   15.2916 C.ar    1  <0>1        0.0439
      8 C7         10.2987   12.1744   14.0382 C.ar    1  <0>1        0.0437
      9 N1         10.9912   11.5165   13.1444 N.ar    1  <0>1       -0.2536
     10 C8         11.4346   10.2743   13.3715 C.ar    1  <0>1        0.0747
     11 C9         12.1715    9.5864   12.3935 C.ar    1  <0>1        0.0097
     12 C10        12.6148    8.3195   12.6425 C.ar    1  <0>1        0.1635
     13 O2         13.3267    7.6599   11.6915 O.3     1  <0>1       -0.4914
     14 C11        13.5689    8.3527   10.4654 C.3     1  <0>1        0.0790
     15 C12         9.2384   12.3581   16.2529 C.1     1  <0>1       -0.0595
     16 C13         8.6193   12.9695   17.0410 C.1     1  <0>1       -0.0610
     17 C14         7.8640   13.7153   18.0023 C.ar    1  <0>1        0.0253
     18 C15         7.4299   15.0095   17.7032 C.ar    1  <0>1       -0.0463
     19 C16         6.7027   15.7216   18.6338 C.ar    1  <0>1       -0.0606
     20 C17         6.4030   15.1577   19.8614 C.ar    1  <0>1       -0.0617
     21 C18         6.8294   13.8766   20.1648 C.ar    1  <0>1       -0.0606
     22 C19         7.5572   13.1523   19.2440 C.ar    1  <0>1       -0.0463
     23 H1         12.9148    4.8355   15.4002 H       1  <0>1        0.0660
     24 H2         12.9231    6.4496   16.1504 H       1  <0>1        0.0660
     25 H3         11.4132    5.7880   15.4791 H       1  <0>1        0.0660
     26 H4         11.4309    7.8374   15.7771 H       1  <0>1        0.0662
     27 H5         10.2038    9.8653   16.5393 H       1  <0>1        0.0637
     28 H6          9.9572   13.1734   13.8106 H       1  <0>1        0.0842
     29 H7         12.3869   10.0587   11.4464 H       1  <0>1        0.0677
     30 H8         12.6177    8.6051    9.9967 H       1  <0>1        0.0660
     31 H9         14.1277    9.2663   10.6685 H       1  <0>1        0.0660
     32 H10        14.1461    7.7150    9.7957 H       1  <0>1        0.0660
     33 H11         7.6638   15.4512   16.7457 H       1  <0>1        0.0630
     34 H12         6.3665   16.7219   18.4040 H       1  <0>1        0.0618
     35 H13         5.8372   15.7218   20.5881 H       1  <0>1        0.0618
     36 H14         6.5919   13.4430   21.1249 H       1  <0>1        0.0618
     37 H15         7.8891   12.1525   19.4819 H       1  <0>1        0.0630
@<TRIPOS>BOND
     1     1     2    1
     2     1    23    1
     3     1    24    1
     4     1    25    1
     5     2     3    1
     6     3    12   ar
     7     3     4   ar
     8     4     5   ar
     9     4    26    1
    10     5    10   ar
    11     5     6   ar
    12     6     7   ar
    13     6    27    1
    14     7     8   ar
    15     7    15    1
    16     8     9   ar
    17     8    28    1
    18     9    10   ar
    19    10    11   ar
    20    11    12   ar
    21    11    29    1
    22    12    13    1
    23    13    14    1
    24    14    30    1
    25    14    31    1
    26    14    32    1
    27    15    16    3
    28    16    17    1
    29    17    22   ar
    30    17    18   ar
    31    18    19   ar
    32    18    33    1
    33    19    20   ar
    34    19    34    1
    35    20    21   ar
    36    20    35    1
    37    21    22   ar
    38    21    36    1
    39    22    37    1
@<TRIPOS>MOLECULE
ZINC03834030
 40 42 0 0 0
SMALL
USER_CHARGES

@<TRIPOS>ATOM
      1 C1         11.3844   14.2117   14.0813 C.3     1  <0>1        0.0790
      2 O1         10.0600   13.6884   13.9628 O.3     1  <0>1       -0.4914
      3 C2          9.9119   12.3450   14.1085 C.ar    1  <0>1        0.1622
      4 C3         11.0060   11.5680   14.3558 C.ar    1  <0>1       -0.0071
      5 C4         10.8531   10.1797   14.5063 C.ar    1  <0>1        0.0058
      6 C5         11.9587    9.3489   14.7624 C.ar    1  <0>1       -0.0301
      7 C6         11.7340    7.9922   14.8995 C.ar    1  <0>1        0.0463
      8 C7         10.4327    7.4909   14.7814 C.ar    1  <0>1        0.0491
      9 N1          9.4124    8.2775   14.5431 N.ar    1  <0>1       -0.2530
     10 C8          9.5644    9.5981   14.4000 C.ar    1  <0>1        0.0748
     11 C9          8.4578   10.4267   14.1450 C.ar    1  <0>1        0.0097
     12 C10         8.6358   11.7718   14.0033 C.ar    1  <0>1        0.1635
     13 O2          7.5618   12.5677   13.7574 O.3     1  <0>1       -0.4914
     14 C11         6.2881   11.9271   13.6609 C.3     1  <0>1        0.0790
     15 N2         12.8013    7.1247   15.1490 N.pl3   1  <0>1       -0.3385
     16 C12        12.5587    5.6872   15.2935 C.3     1  <0>1        0.0344
     17 C13        13.8640    4.9811   15.5549 C.ar    1  <0>1       -0.0304
     18 C14        14.6174    4.5072   14.4973 C.ar    1  <0>1       -0.0571
     19 C15        15.8174    3.8642   14.7368 C.ar    1  <0>1       -0.0615
     20 C16        16.2588    3.6854   16.0345 C.ar    1  <0>1       -0.0617
     21 C17        15.5027    4.1543   17.0925 C.ar    1  <0>1       -0.0615
     22 C18        14.3053    4.8023   16.8527 C.ar    1  <0>1       -0.0571
     23 H1         11.7800   13.9790   15.0700 H       1  <0>1        0.0660
     24 H2         12.0221   13.7625   13.3198 H       1  <0>1        0.0660
     25 H3         11.3615   15.2929   13.9445 H       1  <0>1        0.0660
     26 H4         11.9845   12.0181   14.4351 H       1  <0>1        0.0662
     27 H5         12.9540    9.7590   14.8491 H       1  <0>1        0.0643
     28 H6         10.2654    6.4294   14.8894 H       1  <0>1        0.0848
     29 H7          7.4695    9.9995   14.0612 H       1  <0>1        0.0677
     30 H8          6.3071   11.2013   12.8479 H       1  <0>1        0.0660
     31 H9          6.0661   11.4169   14.5982 H       1  <0>1        0.0660
     32 H10         5.5197   12.6743   13.4630 H       1  <0>1        0.0660
     33 H11        13.7028    7.4745   15.2263 H       1  <0>1        0.1464
     34 H12        11.8792    5.5156   16.1285 H       1  <0>1        0.0511
     35 H13        12.1131    5.2999   14.3772 H       1  <0>1        0.0511
     36 H14        14.2704    4.6430   13.4835 H       1  <0>1        0.0621
     37 H15        16.4083    3.4981   13.9101 H       1  <0>1        0.0618
     38 H16        17.1945    3.1797   16.2218 H       1  <0>1        0.0618
     39 H17        15.8474    4.0146   18.1064 H       1  <0>1        0.0618
     40 H18        13.7146    5.1687   17.6793 H       1  <0>1        0.0621
@<TRIPOS>BOND
     1     1     2    1
     2     1    23    1
     3     1    24    1
     4     1    25    1
     5     2     3    1
     6     3    12   ar
     7     3     4   ar
     8     4     5   ar
     9     4    26    1
    10     5    10   ar
    11     5     6   ar
    12     6     7   ar
    13     6    27    1
    14     7     8   ar
    15     7    15    1
    16     8     9   ar
    17     8    28    1
    18     9    10   ar
    19    10    11   ar
    20    11    12   ar
    21    11    29    1
    22    12    13    1
    23    13    14    1
    24    14    30    1
    25    14    31    1
    26    14    32    1
    27    15    16    1
    28    15    33    1
    29    16    17    1
    30    16    34    1
    31    16    35    1
    32    17    22   ar
    33    17    18   ar
    34    18    19   ar
    35    18    36    1
    36    19    20   ar
    37    19    37    1
    38    20    21   ar
    39    20    38    1
    40    21    22   ar
    41    21    39    1
    42    22    40    1
@<TRIPOS>MOLECULE
ZINC03834031
 39 41 0 0 0
SMALL
USER_CHARGES

@<TRIPOS>ATOM
      1 C1         15.1486   13.9071   13.1278 C.3     1  <0>1        0.0790
      2 O1         16.2932   13.1420   12.7450 O.3     1  <0>1       -0.4914
      3 C2         16.2451   11.8028   12.9741 C.ar    1  <0>1        0.1622
      4 C3         15.1339   11.2553   13.5463 C.ar    1  <0>1       -0.0070
      5 C4         15.0839    9.8716   13.7826 C.ar    1  <0>1        0.0075
      6 C5         13.9553    9.2728   14.3708 C.ar    1  <0>1       -0.0091
      7 C6         13.9740    7.9176   14.5733 C.ar    1  <0>1        0.1396
      8 C7         15.0978    7.1746   14.2015 C.ar    1  <0>1        0.0699
      9 N1         16.1440    7.7392   13.6495 N.ar    1  <0>1       -0.2512
     10 C8         16.1877    9.0567   13.4250 C.ar    1  <0>1        0.0749
     11 C9         17.3171    9.6516   12.8370 C.ar    1  <0>1        0.0097
     12 C10        17.3383   10.9983   12.6194 C.ar    1  <0>1        0.1635
     13 O2         18.4334   11.5682   12.0508 O.3     1  <0>1       -0.4914
     14 C11        19.5150   10.6982   11.7112 C.3     1  <0>1        0.0790
     15 O3         12.9044    7.2983   15.1393 O.3     1  <0>1       -0.4858
     16 C12        12.9944    5.8835   15.3196 C.3     1  <0>1        0.1147
     17 C13        11.7258    5.3764   15.9556 C.ar    1  <0>1       -0.0104
     18 C14        11.6225    5.3072   17.3323 C.ar    1  <0>1       -0.0554
     19 C15        10.4569    4.8471   17.9158 C.ar    1  <0>1       -0.0614
     20 C16         9.3985    4.4458   17.1223 C.ar    1  <0>1       -0.0617
     21 C17         9.5038    4.5097   15.7456 C.ar    1  <0>1       -0.0614
     22 C18        10.6673    4.9752   15.1621 C.ar    1  <0>1       -0.0554
     23 H1         14.2739   13.5484   12.5855 H       1  <0>1        0.0660
     24 H2         14.9813   13.7991   14.1995 H       1  <0>1        0.0660
     25 H3         15.3178   14.9574   12.8905 H       1  <0>1        0.0660
     26 H4         14.2973   11.8828   13.8163 H       1  <0>1        0.0662
     27 H5         13.0979    9.8647   14.6554 H       1  <0>1        0.0661
     28 H6         15.1028    6.1079   14.3697 H       1  <0>1        0.0867
     29 H7         18.1660    9.0446   12.5588 H       1  <0>1        0.0677
     30 H8         19.8775   10.2009   12.6109 H       1  <0>1        0.0660
     31 H9         19.1697    9.9508   10.9970 H       1  <0>1        0.0660
     32 H10        20.3230   11.2795   11.2668 H       1  <0>1        0.0660
     33 H11        13.1332    5.4020   14.3516 H       1  <0>1        0.0748
     34 H12        13.8419    5.6528   15.9651 H       1  <0>1        0.0748
     35 H13        12.4511    5.6165   17.9522 H       1  <0>1        0.0621
     36 H14        10.3745    4.7976   18.9916 H       1  <0>1        0.0618
     37 H15         8.4891    4.0829   17.5782 H       1  <0>1        0.0618
     38 H16         8.6768    4.1963   15.1255 H       1  <0>1        0.0618
     39 H17        10.7495    5.0252   14.0865 H       1  <0>1        0.0621
@<TRIPOS>BOND
     1     1     2    1
     2     1    23    1
     3     1    24    1
     4     1    25    1
     5     2     3    1
     6     3    12   ar
     7     3     4   ar
     8     4     5   ar
     9     4    26    1
    10     5    10   ar
    11     5     6   ar
    12     6     7   ar
    13     6    27    1
    14     7     8   ar
    15     7    15    1
    16     8     9   ar
    17     8    28    1
    18     9    10   ar
    19    10    11   ar
    20    11    12   ar
    21    11    29    1
    22    12    13    1
    23    13    14    1
    24    14    30    1
    25    14    31    1
    26    14    32    1
    27    15    16    1
    28    16    17    1
    29    16    33    1
    30    16    34    1
    31    17    22   ar
    32    17    18   ar
    33    18    19   ar
    34    18    35    1
    35    19    20   ar
    36    19    36    1
    37    20    21   ar
    38    20    37    1
    39    21    22   ar
    40    21    38    1
    41    22    39    1
@<TRIPOS>MOLECULE
ZINC03834032
 41 43 0 0 0
SMALL
USER_CHARGES

@<TRIPOS>ATOM
      1 C1         11.1244   11.8374   12.6293 C.3     1  <0>1       -0.0375
      2 C2         11.5776   12.3987   13.9525 C.ar    1  <0>1       -0.0223
      3 C3         12.8919   12.4685   14.4179 C.ar    1  <0>1       -0.0231
      4 C4         12.8704   13.0394   15.6481 C.ar    1  <0>1        0.0167
      5 N1         11.5874   13.3382   15.9732 N.ar    1  <0>1       -0.3581
      6 H1         11.2953   13.7571   16.7979 H       1  <0>1        0.1656
      7 C5         10.7680   12.9435   14.9374 C.ar    1  <0>1        0.0434
      8 C6          9.3649   13.0750   14.8863 C.2     1  <0>1       -0.0254
      9 C7          8.6186   12.9707   16.0446 C.2     1  <0>1        0.0479
     10 C8          7.1704   13.2265   16.2081 C.ar    1  <0>1        0.0084
     11 C9          6.1665   13.6222   15.3300 C.ar    1  <0>1       -0.0521
     12 C10         4.8758   13.7798   15.7927 C.ar    1  <0>1       -0.0611
     13 C11         4.5822   13.5445   17.1257 C.ar    1  <0>1       -0.0600
     14 C12         5.5707   13.1519   18.0049 C.ar    1  <0>1       -0.0399
     15 C13         6.8773   12.9880   17.5578 C.ar    1  <0>1        0.0416
     16 N2          8.0401   12.6083   18.2167 N.am    1  <0>1       -0.2809
     17 C14         9.0898   12.5758   17.3782 C.2     1  <0>1        0.2490
     18 O1         10.2327   12.2745   17.6734 O.2     1  <0>1       -0.2698
     19 C15        14.0767   13.3049   16.5113 C.3     1  <0>1       -0.0242
     20 C16        14.1187   11.9936   13.6827 C.3     1  <0>1       -0.0157
     21 C17        14.6779   13.1360   12.8324 C.3     1  <0>1        0.0488
     22 C18        15.9047   12.6611   12.0972 C.2     1  <0>1        0.3050
     23 O2         16.2921   11.5255   12.2390 O.2     1  <0>1       -0.2510
     24 H2         11.1174   12.6304   11.8815 H       1  <0>1        0.0278
     25 H3         11.8082   11.0486   12.3160 H       1  <0>1        0.0278
     26 H4         10.1199   11.4274   12.7335 H       1  <0>1        0.0278
     27 H5          8.8737   13.2573   13.9420 H       1  <0>1        0.0646
     28 H6          6.3960   13.8047   14.2906 H       1  <0>1        0.0624
     29 H7          4.0936   14.0868   15.1142 H       1  <0>1        0.0618
     30 H8          3.5699   13.6700   17.4806 H       1  <0>1        0.0618
     31 H9          5.3292   12.9714   19.0419 H       1  <0>1        0.0636
     32 H10         8.0875   12.3906   19.1608 H       1  <0>1        0.1552
     33 H11        14.4702   14.2971   16.2905 H       1  <0>1        0.0292
     34 H12        13.7904   13.2531   17.5617 H       1  <0>1        0.0292
     35 H13        14.8421   12.5565   16.3060 H       1  <0>1        0.0292
     36 H14        14.8724   11.6738   14.4024 H       1  <0>1        0.0319
     37 H15        13.8541   11.1560   13.0373 H       1  <0>1        0.0319
     38 H16        13.9242   13.4559   12.1127 H       1  <0>1        0.0381
     39 H17        14.9425   13.9735   13.4778 H       1  <0>1        0.0381
     40 O3         16.5671   13.4998   11.2850 O.3     1  <0>1       -0.4806
     41 H          16.2666   14.3804   11.1750 H       1  <0>1        0.2951
@<TRIPOS>BOND
     1     1     2    1
     2     1    24    1
     3     1    25    1
     4     1    26    1
     5     2     7   ar
     6     2     3   ar
     7     3     4   ar
     8     3    20    1
     9     4     5   ar
    10     4    19    1
    11     5     6    1
    12     5     7   ar
    13     7     8    1
    14     8     9    2
    15     8    27    1
    16     9    17    1
    17     9    10    1
    18    10    15   ar
    19    10    11   ar
    20    11    12   ar
    21    11    28    1
    22    12    13   ar
    23    12    29    1
    24    13    14   ar
    25    13    30    1
    26    14    15   ar
    27    14    31    1
    28    15    16    1
    29    16    17   am
    30    16    32    1
    31    17    18    2
    32    19    33    1
    33    19    34    1
    34    19    35    1
    35    20    21    1
    36    20    36    1
    37    20    37    1
    38    21    22    1
    39    21    38    1
    40    21    39    1
    41    22    23    2
    42    22    40    1
    43    40    41    1
@<TRIPOS>MOLECULE
ZINC03834033
 41 43 0 0 0
SMALL
USER_CHARGES

@<TRIPOS>ATOM
      1 C1         11.0570    4.7468   15.2342 C.3     1  <0>1       -0.0375
      2 C2         12.1802    5.7515   15.2422 C.ar    1  <0>1       -0.0223
      3 C3         13.5356    5.4795   15.4373 C.ar    1  <0>1       -0.0231
      4 C4         14.2120    6.6532   15.3680 C.ar    1  <0>1        0.0167
      5 N1         13.3288    7.6587   15.1446 N.ar    1  <0>1       -0.3581
      6 H1         13.5517    8.5987   15.0566 H       1  <0>1        0.1656
      7 C5         12.0621    7.1213   15.0632 C.ar    1  <0>1        0.0434
      8 C6         10.8659    7.8337   14.8390 C.2     1  <0>1       -0.0254
      9 C7         10.7205    9.1141   15.3379 C.2     1  <0>1        0.0479
     10 C8          9.6154   10.0622   15.0747 C.ar    1  <0>1        0.0094
     11 C9          8.4516    9.9839   14.3164 C.ar    1  <0>1       -0.0381
     12 C10         7.5898   11.0619   14.2717 C.ar    1  <0>1        0.0186
     13 C11         7.8816   12.2144   14.9841 C.ar    1  <0>1       -0.0460
     14 C12         9.0306   12.2993   15.7438 C.ar    1  <0>1       -0.0388
     15 C13         9.9105   11.2239   15.8012 C.ar    1  <0>1        0.0416
     16 N2         11.1138   11.0477   16.4738 N.am    1  <0>1       -0.2809
     17 C14        11.6324    9.8305   16.2387 C.2     1  <0>1        0.2490
     18 O1         12.6765    9.3974   16.6931 O.2     1  <0>1       -0.2698
     19 Br1         6.0101   10.9659   13.2368 Br      1  <0>1       -0.0503
     20 C15        15.7025    6.8149   15.5207 C.3     1  <0>1       -0.0242
     21 C16        14.1410    4.1207   15.6785 C.3     1  <0>1       -0.0157
     22 C17        14.5150    3.4839   14.3386 C.3     1  <0>1        0.0488
     23 C18        15.1204    2.1251   14.5798 C.2     1  <0>1        0.3050
     24 O2         15.2404    1.7087   15.7076 O.2     1  <0>1       -0.2510
     25 H2         10.9032    4.3819   14.2187 H       1  <0>1        0.0278
     26 H3         10.1430    5.2207   15.5922 H       1  <0>1        0.0278
     27 H4         11.3124    3.9112   15.8857 H       1  <0>1        0.0278
     28 H5         10.0635    7.3786   14.2774 H       1  <0>1        0.0646
     29 H6          8.2254    9.0854   13.7614 H       1  <0>1        0.0635
     30 H7          7.2033   13.0538   14.9447 H       1  <0>1        0.0629
     31 H8          9.2470   13.2027   16.2945 H       1  <0>1        0.0637
     32 H9         11.5266   11.7179   17.0407 H       1  <0>1        0.1552
     33 H10        15.9447    6.9767   16.5710 H       1  <0>1        0.0292
     34 H11        16.2038    5.9141   15.1668 H       1  <0>1        0.0292
     35 H12        16.0369    7.6709   14.9347 H       1  <0>1        0.0292
     36 H13        15.0350    4.2252   16.2932 H       1  <0>1        0.0319
     37 H14        13.4184    3.4871   16.1928 H       1  <0>1        0.0319
     38 H15        13.6210    3.3794   13.7238 H       1  <0>1        0.0381
     39 H16        15.2376    4.1175   13.8242 H       1  <0>1        0.0381
     40 O3         15.5263    1.3773   13.5416 O.3     1  <0>1       -0.4806
     41 H          15.4332    1.7002   12.6669 H       1  <0>1        0.2951
@<TRIPOS>BOND
     1     1     2    1
     2     1    25    1
     3     1    26    1
     4     1    27    1
     5     2     7   ar
     6     2     3   ar
     7     3     4   ar
     8     3    21    1
     9     4     5   ar
    10     4    20    1
    11     5     6    1
    12     5     7   ar
    13     7     8    1
    14     8     9    2
    15     8    28    1
    16     9    17    1
    17     9    10    1
    18    10    15   ar
    19    10    11   ar
    20    11    12   ar
    21    11    29    1
    22    12    13   ar
    23    12    19    1
    24    13    14   ar
    25    13    30    1
    26    14    15   ar
    27    14    31    1
    28    15    16    1
    29    16    17   am
    30    16    32    1
    31    17    18    2
    32    20    33    1
    33    20    34    1
    34    20    35    1
    35    21    22    1
    36    21    36    1
    37    21    37    1
    38    22    23    1
    39    22    38    1
    40    22    39    1
    41    23    24    2
    42    23    40    1
    43    40    41    1
@<TRIPOS>MOLECULE
ZINC03834034
 32 34 0 0 0
SMALL
USER_CHARGES

@<TRIPOS>ATOM
      1 C1         11.7970    8.5259   15.8622 C.3     1  <0>1        0.0790
      2 O1         11.9077    9.1652   14.5891 O.3     1  <0>1       -0.4914
      3 C2         11.2349   10.3351   14.4253 C.ar    1  <0>1        0.1622
      4 C3         10.4986   10.8407   15.4567 C.ar    1  <0>1       -0.0071
      5 C4          9.8031   12.0502   15.2872 C.ar    1  <0>1        0.0047
      6 C5          9.0355   12.5983   16.3285 C.ar    1  <0>1       -0.0428
      7 C6          8.3740   13.7971   16.0898 C.ar    1  <0>1        0.0074
      8 C7          8.4880   14.4113   14.8308 C.ar    1  <0>1        0.0365
      9 N1          9.2125   13.8858   13.8762 N.ar    1  <0>1       -0.2542
     10 C8          9.8724   12.7343   14.0465 C.ar    1  <0>1        0.0747
     11 C9         10.6395   12.1863   13.0050 C.ar    1  <0>1        0.0097
     12 C10        11.3043   11.0099   13.1972 C.ar    1  <0>1        0.1635
     13 O2         12.0442   10.4853   12.1853 O.3     1  <0>1       -0.4914
     14 C11        12.0770   11.2174   10.9585 C.3     1  <0>1        0.0790
     15 C12         7.5521   14.4181   17.1499 C.ar    1  <0>1        0.0208
     16 C13         6.8313   15.5818   17.1125 C.ar    1  <0>1       -0.0469
     17 C14         6.1298   15.9625   18.2356 C.ar    1  <0>1       -0.0541
     18 C15         6.1820   15.1811   19.3446 C.ar    1  <0>1       -0.0237
     19 S1          7.2413   13.8463   18.8124 S.2     1  <0>1       -0.0966
     20 H1         10.7511    8.2926   16.0620 H       1  <0>1        0.0660
     21 H2         12.3802    7.6050   15.8584 H       1  <0>1        0.0660
     22 H3         12.1751    9.1922   16.6376 H       1  <0>1        0.0660
     23 H4         10.4503   10.3140   16.3983 H       1  <0>1        0.0662
     24 H5          8.9619   12.1032   17.2854 H       1  <0>1        0.0631
     25 H6          7.9689   15.3408   14.6484 H       1  <0>1        0.0836
     26 H7         10.7024   12.6943   12.0540 H       1  <0>1        0.0677
     27 H8         12.7013   10.6901   10.2373 H       1  <0>1        0.0660
     28 H9         11.0653   11.3105   10.5639 H       1  <0>1        0.0660
     29 H10        12.4895   12.2102   11.1388 H       1  <0>1        0.0660
     30 H11         6.8102   16.1876   16.2187 H       1  <0>1        0.0629
     31 H12         5.5485   16.8728   18.2348 H       1  <0>1        0.0623
     32 H13         5.7022   15.3270   20.3011 H       1  <0>1        0.0693
@<TRIPOS>BOND
     1     1     2    1
     2     1    20    1
     3     1    21    1
     4     1    22    1
     5     2     3    1
     6     3    12   ar
     7     3     4   ar
     8     4     5   ar
     9     4    23    1
    10     5    10   ar
    11     5     6   ar
    12     6     7   ar
    13     6    24    1
    14     7     8   ar
    15     7    15    1
    16     8     9   ar
    17     8    25    1
    18     9    10   ar
    19    10    11   ar
    20    11    12   ar
    21    11    26    1
    22    12    13    1
    23    13    14    1
    24    14    27    1
    25    14    28    1
    26    14    29    1
    27    15    19   ar
    28    15    16   ar
    29    16    17   ar
    30    16    30    1
    31    17    18   ar
    32    17    31    1
    33    18    19   ar
    34    18    32    1
@<TRIPOS>MOLECULE
ZINC03834035
 55 58 0 0 0
SMALL
USER_CHARGES

@<TRIPOS>ATOM
      1 C1          9.9565   14.3789   19.5517 C.3     1  <0>1       -0.0375
      2 C2          9.1873   14.2218   18.2654 C.ar    1  <0>1       -0.0223
      3 C3          8.1653   15.0526   17.8028 C.ar    1  <0>1       -0.0231
      4 C4          7.7349   14.5638   16.6130 C.ar    1  <0>1        0.0167
      5 N1          8.4539   13.4549   16.3055 N.ar    1  <0>1       -0.3581
      6 H1          8.3463   12.9136   15.5078 H       1  <0>1        0.1656
      7 C5          9.3632   13.2265   17.3161 C.ar    1  <0>1        0.0434
      8 C6         10.2964   12.1712   17.3762 C.2     1  <0>1       -0.0254
      9 C7          9.9749   10.9334   16.8516 C.2     1  <0>1        0.0479
     10 C8         10.8686    9.7662   16.6880 C.ar    1  <0>1        0.0084
     11 C9         12.2121    9.5473   16.9831 C.ar    1  <0>1       -0.0515
     12 C10        12.7838    8.3243   16.7113 C.ar    1  <0>1       -0.0533
     13 C11        12.0165    7.3067   16.1408 C.ar    1  <0>1       -0.0160
     14 C12        10.6753    7.5221   15.8389 C.ar    1  <0>1       -0.0322
     15 C13        10.0897    8.7500   16.1149 C.ar    1  <0>1        0.0421
     16 N2          8.7961    9.2206   15.9227 N.am    1  <0>1       -0.2809
     17 C14         8.6720   10.4931   16.3362 C.2     1  <0>1        0.2490
     18 O1          7.6561   11.1640   16.2919 O.2     1  <0>1       -0.2698
     19 C15        12.6359    5.9911   15.8496 C.ar    1  <0>1       -0.0144
     20 C16        11.8753    4.9710   15.2796 C.ar    1  <0>1       -0.0538
     21 C17        12.4557    3.7495   15.0039 C.ar    1  <0>1       -0.0577
     22 C18        13.7878    3.5298   15.3019 C.ar    1  <0>1       -0.0199
     23 C19        14.5521    4.5399   15.8694 C.ar    1  <0>1        0.1207
     24 C20        13.9793    5.7710   16.1443 C.ar    1  <0>1       -0.0122
     25 O2         15.8625    4.3212   16.1559 O.3     1  <0>1       -0.4951
     26 C21        16.3871    3.0285   15.8464 C.3     1  <0>1        0.0788
     27 C22         6.6355   15.1559   15.7694 C.3     1  <0>1       -0.0242
     28 C23         7.6305   16.2744   18.5045 C.3     1  <0>1       -0.0157
     29 C24         6.4801   15.8693   19.4283 C.3     1  <0>1        0.0488
     30 C25         5.9453   17.0910   20.1300 C.2     1  <0>1        0.3050
     31 O3          6.4340   18.1745   19.9135 O.2     1  <0>1       -0.2510
     32 H2         10.8336   15.0020   19.3769 H       1  <0>1        0.0278
     33 H3          9.3197   14.8498   20.3006 H       1  <0>1        0.0278
     34 H4         10.2725   13.3984   19.9082 H       1  <0>1        0.0278
     35 H5         11.2625   12.3301   17.8323 H       1  <0>1        0.0646
     36 H6         12.8045   10.3353   17.4240 H       1  <0>1        0.0624
     37 H7         13.8254    8.1524   16.9389 H       1  <0>1        0.0624
     38 H8         10.0887    6.7321   15.3936 H       1  <0>1        0.0642
     39 H9          8.0750    8.6972   15.5393 H       1  <0>1        0.1552
     40 H10        10.8333    5.1379   15.0501 H       1  <0>1        0.0624
     41 H11        11.8665    2.9617   14.5583 H       1  <0>1        0.0619
     42 H12        14.2362    2.5707   15.0883 H       1  <0>1        0.0654
     43 H13        14.5729    6.5580   16.5855 H       1  <0>1        0.0660
     44 H14        15.8353    2.2700   16.4016 H       1  <0>1        0.0660
     45 H15        16.2858    2.8416   14.7773 H       1  <0>1        0.0660
     46 H16        17.4403    2.9877   16.1242 H       1  <0>1        0.0660
     47 H17         5.6805   14.7152   16.0555 H       1  <0>1        0.0292
     48 H18         6.5991   16.2343   15.9246 H       1  <0>1        0.0292
     49 H19         6.8316   14.9467   14.7178 H       1  <0>1        0.0292
     50 H20         8.4253   16.7322   19.0933 H       1  <0>1        0.0319
     51 H21         7.2684   16.9887   17.7652 H       1  <0>1        0.0319
     52 H22         5.6854   15.4113   18.8396 H       1  <0>1        0.0381
     53 H23         6.8422   15.1549   20.1677 H       1  <0>1        0.0381
     54 O4          4.9260   16.9754   20.9957 O.3     1  <0>1       -0.4806
     55 H           4.5469   16.1351   21.1636 H       1  <0>1        0.2951
@<TRIPOS>BOND
     1     1     2    1
     2     1    32    1
     3     1    33    1
     4     1    34    1
     5     2     7   ar
     6     2     3   ar
     7     3     4   ar
     8     3    28    1
     9     4     5   ar
    10     4    27    1
    11     5     6    1
    12     5     7   ar
    13     7     8    1
    14     8     9    2
    15     8    35    1
    16     9    17    1
    17     9    10    1
    18    10    15   ar
    19    10    11   ar
    20    11    12   ar
    21    11    36    1
    22    12    13   ar
    23    12    37    1
    24    13    14   ar
    25    13    19    1
    26    14    15   ar
    27    14    38    1
    28    15    16    1
    29    16    17   am
    30    16    39    1
    31    17    18    2
    32    19    24   ar
    33    19    20   ar
    34    20    21   ar
    35    20    40    1
    36    21    22   ar
    37    21    41    1
    38    22    23   ar
    39    22    42    1
    40    23    24   ar
    41    23    25    1
    42    24    43    1
    43    25    26    1
    44    26    44    1
    45    26    45    1
    46    26    46    1
    47    27    47    1
    48    27    48    1
    49    27    49    1
    50    28    29    1
    51    28    50    1
    52    28    51    1
    53    29    30    1
    54    29    52    1
    55    29    53    1
    56    30    31    2
    57    30    54    1
    58    54    55    1
@<TRIPOS>MOLECULE
ZINC03834036
 35 37 0 0 0
SMALL
USER_CHARGES

@<TRIPOS>ATOM
      1 C1          9.9491   12.7988   11.3794 C.3     1  <0>1        0.0790
      2 O1         10.8757   12.0508   12.1693 O.3     1  <0>1       -0.4914
      3 C2         10.7200   12.1038   13.5188 C.ar    1  <0>1        0.1622
      4 C3          9.7110   12.8506   14.0532 C.ar    1  <0>1       -0.0071
      5 C4          9.5504   12.9057   15.4482 C.ar    1  <0>1        0.0046
      6 C5          8.5219   13.6650   16.0317 C.ar    1  <0>1       -0.0433
      7 C6          8.4192   13.6685   17.4153 C.ar    1  <0>1        0.0008
      8 C7          9.3391   12.9338   18.1791 C.ar    1  <0>1        0.0360
      9 N1         10.2910   12.2326   17.6171 N.ar    1  <0>1       -0.2543
     10 C8         10.4378   12.1853   16.2881 C.ar    1  <0>1        0.0747
     11 C9         11.4662   11.4259   15.7057 C.ar    1  <0>1        0.0097
     12 C10        11.5988   11.3903   14.3478 C.ar    1  <0>1        0.1635
     13 O2         12.5954   10.6535   13.7910 O.3     1  <0>1       -0.4914
     14 C11        13.4585    9.9484   14.6856 C.3     1  <0>1        0.0790
     15 C12         7.3480   14.4481   18.0829 C.ar    1  <0>1       -0.0164
     16 C13         6.4392   15.1815   17.3223 C.ar    1  <0>1       -0.0540
     17 C14         5.4420   15.9015   17.9485 C.ar    1  <0>1       -0.0612
     18 C15         5.3497   15.9041   19.3287 C.ar    1  <0>1       -0.0617
     19 C16         6.2520   15.1817   20.0888 C.ar    1  <0>1       -0.0612
     20 C17         7.2503   14.4544   19.4731 C.ar    1  <0>1       -0.0540
     21 H1         10.0183   13.8547   11.6409 H       1  <0>1        0.0660
     22 H2         10.1851   12.6700   10.3232 H       1  <0>1        0.0660
     23 H3          8.9371   12.4425   11.5717 H       1  <0>1        0.0660
     24 H4          9.0389   13.3962   13.4074 H       1  <0>1        0.0662
     25 H5          7.8294   14.2253   15.4210 H       1  <0>1        0.0631
     26 H6          9.2571   12.9434   19.2560 H       1  <0>1        0.0836
     27 H7         12.1502   10.8713   16.3310 H       1  <0>1        0.0677
     28 H8         12.8719    9.2470   15.2789 H       1  <0>1        0.0660
     29 H9         14.2076    9.4021   14.1126 H       1  <0>1        0.0660
     30 H10        13.9540   10.6586   15.3476 H       1  <0>1        0.0660
     31 H11         6.5131   15.1838   16.2449 H       1  <0>1        0.0624
     32 H12         4.7349   16.4672   17.3599 H       1  <0>1        0.0618
     33 H13         4.5702   16.4719   19.8146 H       1  <0>1        0.0618
     34 H14         6.1753   15.1873   21.1660 H       1  <0>1        0.0618
     35 H15         7.9541   13.8908   20.0674 H       1  <0>1        0.0624
@<TRIPOS>BOND
     1     1     2    1
     2     1    21    1
     3     1    22    1
     4     1    23    1
     5     2     3    1
     6     3    12   ar
     7     3     4   ar
     8     4     5   ar
     9     4    24    1
    10     5    10   ar
    11     5     6   ar
    12     6     7   ar
    13     6    25    1
    14     7     8   ar
    15     7    15    1
    16     8     9   ar
    17     8    26    1
    18     9    10   ar
    19    10    11   ar
    20    11    12   ar
    21    11    27    1
    22    12    13    1
    23    13    14    1
    24    14    28    1
    25    14    29    1
    26    14    30    1
    27    15    20   ar
    28    15    16   ar
    29    16    17   ar
    30    16    31    1
    31    17    18   ar
    32    17    32    1
    33    18    19   ar
    34    18    33    1
    35    19    20   ar
    36    19    34    1
    37    20    35    1
@<TRIPOS>MOLECULE
ZINC03834037
 38 40 0 0 0
SMALL
USER_CHARGES

@<TRIPOS>ATOM
      1 C1          9.9488   12.7985   11.3795 C.3     1  <0>1        0.0790
      2 O1         10.8756   12.0506   12.1693 O.3     1  <0>1       -0.4914
      3 C2         10.7200   12.1038   13.5188 C.ar    1  <0>1        0.1622
      4 C3          9.7110   12.8506   14.0532 C.ar    1  <0>1       -0.0071
      5 C4          9.5506   12.9060   15.4482 C.ar    1  <0>1        0.0046
      6 C5          8.5221   13.6653   16.0316 C.ar    1  <0>1       -0.0433
      7 C6          8.4225   13.6730   17.4155 C.ar    1  <0>1        0.0008
      8 C7          9.3391   12.9338   18.1791 C.ar    1  <0>1        0.0360
      9 N1         10.2910   12.2326   17.6170 N.ar    1  <0>1       -0.2543
     10 C8         10.4378   12.1854   16.2881 C.ar    1  <0>1        0.0747
     11 C9         11.4663   11.4261   15.7057 C.ar    1  <0>1        0.0097
     12 C10        11.5990   11.3906   14.3479 C.ar    1  <0>1        0.1635
     13 O2         12.5959   10.6541   13.7911 O.3     1  <0>1       -0.4914
     14 C11        13.4590    9.9492   14.6857 C.3     1  <0>1        0.0790
     15 C12         7.3547   14.4571   18.0833 C.ar    1  <0>1       -0.0163
     16 C13         6.4494   15.1949   17.3229 C.ar    1  <0>1       -0.0518
     17 C14         5.4548   15.9183   17.9492 C.ar    1  <0>1       -0.0311
     18 C15         5.3623   15.9208   19.3294 C.ar    1  <0>1        0.1216
     19 C16         6.2618   15.1948   20.0893 C.ar    1  <0>1       -0.0311
     20 C17         7.2568   14.4632   19.4734 C.ar    1  <0>1       -0.0518
     21 N2          4.2973   16.7035   19.9957 N.4     1  <0>1        0.0059
     22 O3          4.2140   16.7075   21.2108 O.2     1  <0>1       -0.1300
     23 O4          3.5040   17.3435   19.3288 O.2     1  <0>1       -0.3961
     24 H1          8.9368   12.4420   11.5719 H       1  <0>1        0.0660
     25 H2         10.0179   13.8544   11.6408 H       1  <0>1        0.0660
     26 H3         10.1847   12.6694   10.3231 H       1  <0>1        0.0660
     27 H4          9.0389   13.3961   13.4074 H       1  <0>1        0.0662
     28 H5          7.8297   14.2258   15.4211 H       1  <0>1        0.0631
     29 H6          9.2544   12.9401   19.2557 H       1  <0>1        0.0836
     30 H7         12.1501   10.8713   16.3311 H       1  <0>1        0.0677
     31 H8         12.8726    9.2475   15.2789 H       1  <0>1        0.0660
     32 H9         14.2084    9.4030   14.1127 H       1  <0>1        0.0660
     33 H10        13.9543   10.6594   15.3478 H       1  <0>1        0.0660
     34 H11         6.5234   15.1974   16.2454 H       1  <0>1        0.0624
     35 H12         4.7499   16.4869   17.3608 H       1  <0>1        0.0640
     36 H13         6.1849   15.2003   21.1665 H       1  <0>1        0.0640
     37 H14         7.9586   13.8967   20.0677 H       1  <0>1        0.0624
     38 H           3.5681   17.3405   18.3940 H       1  <0>1        0.3292
@<TRIPOS>BOND
     1     1     2    1
     2     1    24    1
     3     1    25    1
     4     1    26    1
     5     2     3    1
     6     3    12   ar
     7     3     4   ar
     8     4     5   ar
     9     4    27    1
    10     5    10   ar
    11     5     6   ar
    12     6     7   ar
    13     6    28    1
    14     7     8   ar
    15     7    15    1
    16     8     9   ar
    17     8    29    1
    18     9    10   ar
    19    10    11   ar
    20    11    12   ar
    21    11    30    1
    22    12    13    1
    23    13    14    1
    24    14    31    1
    25    14    32    1
    26    14    33    1
    27    15    20   ar
    28    15    16   ar
    29    16    17   ar
    30    16    34    1
    31    17    18   ar
    32    17    35    1
    33    18    19   ar
    34    18    21    1
    35    19    20   ar
    36    19    36    1
    37    20    37    1
    38    21    22    2
    39    21    23    1
    40    23    38    1
@<TRIPOS>MOLECULE
ZINC03834038
 38 40 0 0 0
SMALL
USER_CHARGES

@<TRIPOS>ATOM
      1 C1         10.6348   12.1965   12.9554 C.3     1  <0>1       -0.0375
      2 C2          9.8843   12.7128   14.1559 C.ar    1  <0>1       -0.0226
      3 C3          9.3853   14.0049   14.3301 C.ar    1  <0>1       -0.0261
      4 C4          8.7721   14.0572   15.5388 C.ar    1  <0>1        0.0056
      5 N1          8.8719   12.8434   16.1370 N.ar    1  <0>1       -0.3606
      6 H1          8.5175   12.6116   17.0096 H       1  <0>1        0.1653
      7 C5          9.5618   11.9952   15.2975 C.ar    1  <0>1        0.0432
      8 C6          9.8760   10.6439   15.5506 C.2     1  <0>1       -0.0254
      9 C7         10.1393   10.2258   16.8411 C.2     1  <0>1        0.0479
     10 C8         10.3372    8.8380   17.3148 C.ar    1  <0>1        0.0084
     11 C9         10.3249    7.6016   16.6771 C.ar    1  <0>1       -0.0521
     12 C10        10.5491    6.4525   17.4079 C.ar    1  <0>1       -0.0611
     13 C11        10.7853    6.5311   18.7705 C.ar    1  <0>1       -0.0600
     14 C12        10.7996    7.7526   19.4125 C.ar    1  <0>1       -0.0399
     15 C13        10.5759    8.9216   18.6933 C.ar    1  <0>1        0.0416
     16 N2         10.5361   10.2546   19.0829 N.am    1  <0>1       -0.2809
     17 C14        10.2895   11.0631   18.0381 C.2     1  <0>1        0.2490
     18 O1         10.2029   12.2776   18.0777 O.2     1  <0>1       -0.2698
     19 C15         9.5016   15.1400   13.3456 C.3     1  <0>1       -0.0159
     20 C16         8.3666   15.0473   12.3238 C.3     1  <0>1        0.0488
     21 C17         8.4829   16.1823   11.3393 C.2     1  <0>1        0.3050
     22 O2          9.3816   16.9833   11.4443 O.2     1  <0>1       -0.2510
     23 H2         11.7035   12.3567   13.0985 H       1  <0>1        0.0278
     24 H3         10.4399   11.1309   12.8358 H       1  <0>1        0.0278
     25 H4         10.3038   12.7288   12.0636 H       1  <0>1        0.0278
     26 H5          8.2835   14.9246   15.9575 H       1  <0>1        0.0810
     27 H6          9.9109    9.9359   14.7359 H       1  <0>1        0.0646
     28 H7         10.1403    7.5412   15.6147 H       1  <0>1        0.0624
     29 H8         10.5403    5.4908   16.9167 H       1  <0>1        0.0618
     30 H9         10.9596    5.6276   19.3360 H       1  <0>1        0.0618
     31 H10        10.9853    7.8008   20.4754 H       1  <0>1        0.0636
     32 H11        10.6729   10.5627   19.9925 H       1  <0>1        0.1552
     33 H12        10.4602   15.0774   12.8306 H       1  <0>1        0.0319
     34 H13         9.4358   16.0897   13.8766 H       1  <0>1        0.0319
     35 H14         7.4080   15.1098   12.8389 H       1  <0>1        0.0381
     36 H15         8.4324   14.0976   11.7929 H       1  <0>1        0.0381
     37 O3          7.5883   16.3035   10.3460 O.3     1  <0>1       -0.4806
     38 H           6.8915   15.6824   10.2647 H       1  <0>1        0.2951
@<TRIPOS>BOND
     1     1     2    1
     2     1    23    1
     3     1    24    1
     4     1    25    1
     5     2     7   ar
     6     2     3   ar
     7     3     4   ar
     8     3    19    1
     9     4     5   ar
    10     4    26    1
    11     5     6    1
    12     5     7   ar
    13     7     8    1
    14     8     9    2
    15     8    27    1
    16     9    17    1
    17     9    10    1
    18    10    15   ar
    19    10    11   ar
    20    11    12   ar
    21    11    28    1
    22    12    13   ar
    23    12    29    1
    24    13    14   ar
    25    13    30    1
    26    14    15   ar
    27    14    31    1
    28    15    16    1
    29    16    17   am
    30    16    32    1
    31    17    18    2
    32    19    20    1
    33    19    33    1
    34    19    34    1
    35    20    21    1
    36    20    35    1
    37    20    36    1
    38    21    22    2
    39    21    37    1
    40    37    38    1
@<TRIPOS>MOLECULE
ZINC03834039
 42 44 0 0 0
SMALL
USER_CHARGES

@<TRIPOS>ATOM
      1 C1         11.0570    4.7469   15.2342 C.3     1  <0>1       -0.0375
      2 C2         12.1803    5.7515   15.2422 C.ar    1  <0>1       -0.0226
      3 C3         13.5375    5.4778   15.4242 C.ar    1  <0>1       -0.0261
      4 C4         14.2134    6.6515   15.3571 C.ar    1  <0>1        0.0056
      5 N1         13.3287    7.6585   15.1446 N.ar    1  <0>1       -0.3606
      6 H1         13.5513    8.5986   15.0577 H       1  <0>1        0.1653
      7 C5         12.0610    7.1223   15.0738 C.ar    1  <0>1        0.0432
      8 C6         10.8630    7.8364   14.8624 C.2     1  <0>1       -0.0254
      9 C7         10.8599    8.9560   14.0535 C.2     1  <0>1        0.0479
     10 C8          9.7456    9.9054   13.8344 C.ar    1  <0>1        0.0086
     11 C9          8.4461    9.9792   14.3266 C.ar    1  <0>1       -0.0486
     12 C10         7.6199   11.0092   13.9281 C.ar    1  <0>1       -0.0193
     13 C11         8.0854   11.9701   13.0381 C.ar    1  <0>1        0.1219
     14 C12         9.3800   11.9084   12.5504 C.ar    1  <0>1        0.0019
     15 C13        10.2221   10.8730   12.9391 C.ar    1  <0>1        0.0450
     16 N2         11.5344   10.5709   12.5968 N.am    1  <0>1       -0.2808
     17 C14        11.9596    9.4588   13.2198 C.2     1  <0>1        0.2490
     18 O1         13.0637    8.9555   13.1116 O.2     1  <0>1       -0.2698
     19 O2          7.2661   12.9827   12.6500 O.3     1  <0>1       -0.4951
     20 C15         5.9456   12.9943   13.1959 C.3     1  <0>1        0.0788
     21 C16        14.1446    4.1170   15.6491 C.3     1  <0>1       -0.0159
     22 C17        14.3865    3.4372   14.3000 C.3     1  <0>1        0.0488
     23 C18        14.9937    2.0764   14.5250 C.2     1  <0>1        0.3050
     24 O3         15.2107    1.6899   15.6489 O.2     1  <0>1       -0.2510
     25 H2         10.6738    4.6223   16.2470 H       1  <0>1        0.0278
     26 H3         10.2571    5.1014   14.5840 H       1  <0>1        0.0278
     27 H4         11.4277    3.7904   14.8657 H       1  <0>1        0.0278
     28 H5         15.2827    6.7662   15.4564 H       1  <0>1        0.0810
     29 H6          9.9481    7.5076   15.3329 H       1  <0>1        0.0646
     30 H7          8.0855    9.2320   15.0180 H       1  <0>1        0.0625
     31 H8          6.6108   11.0693   14.3083 H       1  <0>1        0.0654
     32 H9          9.7317   12.6585   11.8577 H       1  <0>1        0.0673
     33 H10        12.0747   11.0957   11.9855 H       1  <0>1        0.1552
     34 H11         5.3985   13.8524   12.8052 H       1  <0>1        0.0660
     35 H12         5.4288   12.0762   12.9166 H       1  <0>1        0.0660
     36 H13         6.0021   13.0634   14.2822 H       1  <0>1        0.0660
     37 H14        13.4638    3.5094   16.2453 H       1  <0>1        0.0319
     38 H15        15.0922    4.2247   16.1768 H       1  <0>1        0.0319
     39 H16        15.0673    4.0448   13.7038 H       1  <0>1        0.0381
     40 H17        13.4388    3.3295   13.7723 H       1  <0>1        0.0381
     41 O4         15.2934    1.2935   13.4765 O.3     1  <0>1       -0.4806
     42 H          15.1251    1.5932   12.6048 H       1  <0>1        0.2951
@<TRIPOS>BOND
     1     1     2    1
     2     1    25    1
     3     1    26    1
     4     1    27    1
     5     2     7   ar
     6     2     3   ar
     7     3     4   ar
     8     3    21    1
     9     4     5   ar
    10     4    28    1
    11     5     6    1
    12     5     7   ar
    13     7     8    1
    14     8     9    2
    15     8    29    1
    16     9    17    1
    17     9    10    1
    18    10    15   ar
    19    10    11   ar
    20    11    12   ar
    21    11    30    1
    22    12    13   ar
    23    12    31    1
    24    13    14   ar
    25    13    19    1
    26    14    15   ar
    27    14    32    1
    28    15    16    1
    29    16    17   am
    30    16    33    1
    31    17    18    2
    32    19    20    1
    33    20    34    1
    34    20    35    1
    35    20    36    1
    36    21    22    1
    37    21    37    1
    38    21    38    1
    39    22    23    1
    40    22    39    1
    41    22    40    1
    42    23    24    2
    43    23    41    1
    44    41    42    1
@<TRIPOS>MOLECULE
ZINC03834040
 35 37 0 0 0
SMALL
USER_CHARGES

@<TRIPOS>ATOM
      1 C1          9.9621   14.0545   11.7034 C.3     1  <0>1        0.0790
      2 O1         10.6951   12.8346   11.8326 O.3     1  <0>1       -0.4914
      3 C2         10.6235   12.1954   13.0304 C.ar    1  <0>1        0.1622
      4 C3          9.8741   12.7300   14.0372 C.ar    1  <0>1       -0.0071
      5 C4          9.8004   12.0695   15.2755 C.ar    1  <0>1        0.0046
      6 C5          9.0328   12.5892   16.3315 C.ar    1  <0>1       -0.0433
      7 C6          9.0093   11.8861   17.5274 C.ar    1  <0>1        0.0009
      8 C7          9.7339   10.6895   17.6407 C.ar    1  <0>1        0.0360
      9 N1         10.4392   10.2185   16.6433 N.ar    1  <0>1       -0.2543
     10 C8         10.5050   10.8535   15.4676 C.ar    1  <0>1        0.0747
     11 C9         11.2677   10.3301   14.4103 C.ar    1  <0>1        0.0097
     12 C10        11.3215   10.9929   13.2185 C.ar    1  <0>1        0.1635
     13 O2         12.0610   10.4810   12.2000 O.3     1  <0>1       -0.4914
     14 C11        12.7491    9.2540   12.4508 C.3     1  <0>1        0.0790
     15 C12         8.2190   12.3923   18.6762 C.ar    1  <0>1       -0.0135
     16 C13         8.1929   11.6805   19.8743 C.ar    1  <0>1       -0.0511
     17 C14         7.4521   12.1510   20.9391 C.ar    1  <0>1       -0.0230
     18 C15         6.7427   13.3350   20.8232 C.ar    1  <0>1        0.1584
     19 C16         6.7651   14.0477   19.6329 C.ar    1  <0>1        0.1590
     20 C17         7.5003   13.5804   18.5603 C.ar    1  <0>1       -0.0158
     21 F1          6.0679   15.1997   19.5229 F       1  <0>1       -0.2025
     22 F2          6.0231   13.7945   21.8701 F       1  <0>1       -0.2025
     23 H1         10.3199   14.7732   12.4408 H       1  <0>1        0.0660
     24 H2         10.1052   14.4599   10.7018 H       1  <0>1        0.0660
     25 H3          8.9023   13.8609   11.8692 H       1  <0>1        0.0660
     26 H4          9.3403   13.6563   13.8836 H       1  <0>1        0.0662
     27 H5          8.4805   13.5101   16.2169 H       1  <0>1        0.0631
     28 H6          9.7088   10.1441   18.5724 H       1  <0>1        0.0836
     29 H7         11.8097    9.4050   14.5401 H       1  <0>1        0.0677
     30 H8         12.0272    8.4785   12.7071 H       1  <0>1        0.0660
     31 H9         13.2996    8.9571   11.5580 H       1  <0>1        0.0660
     32 H10        13.4452    9.3903   13.2784 H       1  <0>1        0.0660
     33 H11         8.7483   10.7590   19.9676 H       1  <0>1        0.0625
     34 H12         7.4284   11.5971   21.8658 H       1  <0>1        0.0647
     35 H13         7.5180   14.1353   17.6339 H       1  <0>1        0.0653
@<TRIPOS>BOND
     1     1     2    1
     2     1    23    1
     3     1    24    1
     4     1    25    1
     5     2     3    1
     6     3    12   ar
     7     3     4   ar
     8     4     5   ar
     9     4    26    1
    10     5    10   ar
    11     5     6   ar
    12     6     7   ar
    13     6    27    1
    14     7     8   ar
    15     7    15    1
    16     8     9   ar
    17     8    28    1
    18     9    10   ar
    19    10    11   ar
    20    11    12   ar
    21    11    29    1
    22    12    13    1
    23    13    14    1
    24    14    30    1
    25    14    31    1
    26    14    32    1
    27    15    20   ar
    28    15    16   ar
    29    16    17   ar
    30    16    33    1
    31    17    18   ar
    32    17    34    1
    33    18    19   ar
    34    18    22    1
    35    19    20   ar
    36    19    21    1
    37    20    35    1
@<TRIPOS>MOLECULE
ZINC03834041
 48 51 0 0 0
SMALL
USER_CHARGES

@<TRIPOS>ATOM
      1 C1         10.6374   12.1941   12.9636 C.3     1  <0>1       -0.0375
      2 C2          9.8803   12.7158   14.1576 C.ar    1  <0>1       -0.0226
      3 C3          8.4949   12.8445   14.2703 C.ar    1  <0>1       -0.0261
      4 C4          8.2199   13.3451   15.5006 C.ar    1  <0>1        0.0056
      5 N1          9.3851   13.5426   16.1671 N.ar    1  <0>1       -0.3606
      6 H1          9.4698   13.8933   17.0675 H       1  <0>1        0.1653
      7 C5         10.4285   13.1620   15.3505 C.ar    1  <0>1        0.0432
      8 C6         11.8005   13.2113   15.6718 C.2     1  <0>1       -0.0254
      9 C7         12.2151   12.9804   16.9701 C.2     1  <0>1        0.0479
     10 C8         13.5805   13.1319   17.5185 C.ar    1  <0>1        0.0084
     11 C9         14.7913   13.5354   16.9606 C.ar    1  <0>1       -0.0515
     12 C10        15.9239   13.5856   17.7420 C.ar    1  <0>1       -0.0533
     13 C11        15.8558   13.2384   19.0928 C.ar    1  <0>1       -0.0161
     14 C12        14.6475   12.8404   19.6566 C.ar    1  <0>1       -0.0322
     15 C13        13.5010   12.7871   18.8760 C.ar    1  <0>1        0.0421
     16 N2         12.1923   12.4308   19.1800 N.am    1  <0>1       -0.2809
     17 C14        11.3964   12.5255   18.1014 C.2     1  <0>1        0.2490
     18 O1         10.2043   12.2771   18.0678 O.2     1  <0>1       -0.2698
     19 C15        17.0780   13.2938   19.9310 C.ar    1  <0>1       -0.0178
     20 C16        17.0162   12.9537   21.2813 C.ar    1  <0>1       -0.0540
     21 C17        18.1578   13.0020   22.0552 C.ar    1  <0>1       -0.0612
     22 C18        19.3594   13.3981   21.4960 C.ar    1  <0>1       -0.0617
     23 C19        19.4256   13.7417   20.1576 C.ar    1  <0>1       -0.0612
     24 C20        18.2917   13.6916   19.3727 C.ar    1  <0>1       -0.0540
     25 C21         7.4826   12.4845   13.2135 C.3     1  <0>1       -0.0159
     26 C22         7.1575   10.9923   13.3059 C.3     1  <0>1        0.0488
     27 C23         6.1453   10.6323   12.2491 C.2     1  <0>1        0.3050
     28 O2          5.7267   11.4821   11.4991 O.2     1  <0>1       -0.2510
     29 H2         10.8776   13.0214   12.2958 H       1  <0>1        0.0278
     30 H3         11.5590   11.7174   13.2976 H       1  <0>1        0.0278
     31 H4         10.0232   11.4660   12.4337 H       1  <0>1        0.0278
     32 H5          7.2331   13.5529   15.8872 H       1  <0>1        0.0810
     33 H6         12.5275   13.4295   14.9035 H       1  <0>1        0.0646
     34 H7         14.8426   13.8033   15.9156 H       1  <0>1        0.0624
     35 H8         16.8649   13.8930   17.3101 H       1  <0>1        0.0624
     36 H9         14.6019   12.5726   20.7019 H       1  <0>1        0.0642
     37 H10        11.8919   12.1499   20.0585 H       1  <0>1        0.1552
     38 H11        16.0775   12.6491   21.7201 H       1  <0>1        0.0624
     39 H12        18.1121   12.7342   23.1005 H       1  <0>1        0.0618
     40 H13        20.2494   13.4386   22.1065 H       1  <0>1        0.0618
     41 H14        20.3665   14.0500   19.7263 H       1  <0>1        0.0618
     42 H15        18.3446   13.9597   18.3279 H       1  <0>1        0.0624
     43 H16         7.8915   12.7070   12.2279 H       1  <0>1        0.0319
     44 H17         6.5731   13.0648   13.3690 H       1  <0>1        0.0319
     45 H18         6.7487   10.7698   14.2915 H       1  <0>1        0.0381
     46 H19         8.0671   10.4120   13.1504 H       1  <0>1        0.0381
     47 O3          5.7085    9.3676   12.1411 O.3     1  <0>1       -0.4806
     48 H           6.0331    8.7086   12.7227 H       1  <0>1        0.2951
@<TRIPOS>BOND
     1     1     2    1
     2     1    29    1
     3     1    30    1
     4     1    31    1
     5     2     7   ar
     6     2     3   ar
     7     3     4   ar
     8     3    25    1
     9     4     5   ar
    10     4    32    1
    11     5     6    1
    12     5     7   ar
    13     7     8    1
    14     8     9    2
    15     8    33    1
    16     9    17    1
    17     9    10    1
    18    10    15   ar
    19    10    11   ar
    20    11    12   ar
    21    11    34    1
    22    12    13   ar
    23    12    35    1
    24    13    14   ar
    25    13    19    1
    26    14    15   ar
    27    14    36    1
    28    15    16    1
    29    16    17   am
    30    16    37    1
    31    17    18    2
    32    19    24   ar
    33    19    20   ar
    34    20    21   ar
    35    20    38    1
    36    21    22   ar
    37    21    39    1
    38    22    23   ar
    39    22    40    1
    40    23    24   ar
    41    23    41    1
    42    24    42    1
    43    25    26    1
    44    25    43    1
    45    25    44    1
    46    26    27    1
    47    26    45    1
    48    26    46    1
    49    27    28    2
    50    27    47    1
    51    47    48    1
@<TRIPOS>MOLECULE
ZINC03834042
 39 42 0 0 0
SMALL
USER_CHARGES

@<TRIPOS>ATOM
      1 C1          7.8356   11.6328   15.0007 C.3     1  <0>1        0.0790
      2 O1          8.6162   12.0186   16.1337 O.3     1  <0>1       -0.4914
      3 C2          9.6018   11.1671   16.5232 C.ar    1  <0>1        0.1622
      4 C3          9.8025   10.0065   15.8345 C.ar    1  <0>1       -0.0071
      5 C4         10.8210    9.1260   16.2373 C.ar    1  <0>1        0.0047
      6 C5         11.0544    7.9222   15.5507 C.ar    1  <0>1       -0.0432
      7 C6         12.0771    7.1007   16.0047 C.ar    1  <0>1        0.0028
      8 C7         12.8322    7.4898   17.1229 C.ar    1  <0>1        0.0360
      9 N1         12.6020    8.6178   17.7459 N.ar    1  <0>1       -0.2543
     10 C8         11.6309    9.4510   17.3554 C.ar    1  <0>1        0.0747
     11 C9         11.3983   10.6544   18.0422 C.ar    1  <0>1        0.0097
     12 C10        10.4019   11.4905   17.6293 C.ar    1  <0>1        0.1635
     13 O2         10.1820   12.6527   18.2985 O.3     1  <0>1       -0.4914
     14 C11        11.0283   12.9277   19.4164 C.3     1  <0>1        0.0790
     15 C12        12.3660    5.8195   15.3180 C.ar    1  <0>1        0.0086
     16 C13        11.4700    4.8559   14.9925 C.ar    1  <0>1        0.0105
     17 N2         12.1095    3.8228   14.3691 N.ar    1  <0>1       -0.3600
     18 H1         11.6771    3.0179   14.0431 H       1  <0>1        0.1654
     19 C14        13.4579    4.0893   14.2702 C.ar    1  <0>1        0.0471
     20 C15        13.6813    5.3466   14.8572 C.ar    1  <0>1        0.0074
     21 C16        14.9695    5.8774   14.9001 C.ar    1  <0>1       -0.0520
     22 C17        16.0191    5.1641   14.3653 C.ar    1  <0>1       -0.0611
     23 C18        15.7993    3.9225   13.7856 C.ar    1  <0>1       -0.0598
     24 C19        14.5318    3.3850   13.7358 C.ar    1  <0>1       -0.0378
     25 H2          8.4857   11.5207   14.1328 H       1  <0>1        0.0660
     26 H3          7.3389   10.6848   15.2074 H       1  <0>1        0.0660
     27 H4          7.0870   12.3985   14.7974 H       1  <0>1        0.0660
     28 H5          9.1815    9.7655   14.9844 H       1  <0>1        0.0662
     29 H6         10.4559    7.6445   14.6958 H       1  <0>1        0.0631
     30 H7         13.6240    6.8452   17.4747 H       1  <0>1        0.0836
     31 H8         12.0065   10.9172   18.8951 H       1  <0>1        0.0677
     32 H9         10.9183   12.1371   20.1586 H       1  <0>1        0.0660
     33 H10        12.0656   12.9727   19.0845 H       1  <0>1        0.0660
     34 H11        10.7467   13.8832   19.8590 H       1  <0>1        0.0660
     35 H12        10.4102    4.8986   15.1960 H       1  <0>1        0.0813
     36 H13        15.1431    6.8454   15.3466 H       1  <0>1        0.0624
     37 H14        17.0182    5.5729   14.3971 H       1  <0>1        0.0618
     38 H15        16.6302    3.3724   13.3690 H       1  <0>1        0.0618
     39 H16        14.3722    2.4181   13.2819 H       1  <0>1        0.0638
@<TRIPOS>BOND
     1     1     2    1
     2     1    25    1
     3     1    26    1
     4     1    27    1
     5     2     3    1
     6     3    12   ar
     7     3     4   ar
     8     4     5   ar
     9     4    28    1
    10     5    10   ar
    11     5     6   ar
    12     6     7   ar
    13     6    29    1
    14     7     8   ar
    15     7    15    1
    16     8     9   ar
    17     8    30    1
    18     9    10   ar
    19    10    11   ar
    20    11    12   ar
    21    11    31    1
    22    12    13    1
    23    13    14    1
    24    14    32    1
    25    14    33    1
    26    14    34    1
    27    15    20   ar
    28    15    16   ar
    29    16    17   ar
    30    16    35    1
    31    17    18    1
    32    17    19   ar
    33    19    24   ar
    34    19    20   ar
    35    20    21   ar
    36    21    22   ar
    37    21    36    1
    38    22    23   ar
    39    22    37    1
    40    23    24   ar
    41    23    38    1
    42    24    39    1
@<TRIPOS>MOLECULE
ZINC03834043
 39 41 0 0 0
SMALL
USER_CHARGES

@<TRIPOS>ATOM
      1 C1          9.9486   12.7981   11.3794 C.3     1  <0>1        0.0790
      2 O1         10.8754   12.0504   12.1693 O.3     1  <0>1       -0.4914
      3 C2         10.7200   12.1038   13.5188 C.ar    1  <0>1        0.1622
      4 C3          9.7110   12.8506   14.0532 C.ar    1  <0>1       -0.0071
      5 C4          9.5501   12.9054   15.4482 C.ar    1  <0>1        0.0046
      6 C5          8.5210   13.6639   16.0315 C.ar    1  <0>1       -0.0433
      7 C6          8.4217   13.6721   17.4155 C.ar    1  <0>1        0.0010
      8 C7          9.3389   12.9333   18.1791 C.ar    1  <0>1        0.0360
      9 N1         10.2910   12.2326   17.6170 N.ar    1  <0>1       -0.2543
     10 C8         10.4378   12.1853   16.2881 C.ar    1  <0>1        0.0747
     11 C9         11.4666   11.4263   15.7056 C.ar    1  <0>1        0.0097
     12 C10        11.5991   11.3907   14.3478 C.ar    1  <0>1        0.1635
     13 O2         12.5960   10.6542   13.7910 O.3     1  <0>1       -0.4914
     14 C11        13.4593    9.9496   14.6855 C.3     1  <0>1        0.0790
     15 C12         7.3504   14.4511   18.0829 C.ar    1  <0>1       -0.0108
     16 C13         6.4452   15.1880   17.3211 C.ar    1  <0>1       -0.0149
     17 C14         5.4459   15.9096   17.9448 C.ar    1  <0>1        0.1682
     18 C15         5.3483   15.9086   19.3307 C.ar    1  <0>1        0.1903
     19 C16         6.2524   15.1787   20.0925 C.ar    1  <0>1        0.1682
     20 C17         7.2507   14.4521   19.4732 C.ar    1  <0>1       -0.0149
     21 F1          6.1553   15.1799   21.4400 F       1  <0>1       -0.2015
     22 O3          4.3667   16.6234   19.9427 O.3     1  <0>1       -0.4896
     23 C18         4.6693   17.9764   20.2892 C.3     1  <0>1        0.0791
     24 F2          4.5659   16.6210   17.2067 F       1  <0>1       -0.2015
     25 H1         10.1845   12.6689   10.3231 H       1  <0>1        0.0660
     26 H2          8.9367   12.4416   11.5719 H       1  <0>1        0.0660
     27 H3         10.0176   13.8541   11.6406 H       1  <0>1        0.0660
     28 H4          9.0394   13.3969   13.4075 H       1  <0>1        0.0662
     29 H5          7.8279   14.2234   15.4209 H       1  <0>1        0.0631
     30 H6          9.2569   12.9430   19.2559 H       1  <0>1        0.0836
     31 H7         12.1506   10.8719   16.3309 H       1  <0>1        0.0677
     32 H8         13.9546   10.6599   15.3475 H       1  <0>1        0.0660
     33 H9         12.8732    9.2479   15.2789 H       1  <0>1        0.0660
     34 H10        14.2087    9.4035   14.1126 H       1  <0>1        0.0660
     35 H11         6.5231   15.1924   16.2439 H       1  <0>1        0.0653
     36 H12         7.9537   13.8854   20.0658 H       1  <0>1        0.0653
     37 H13         5.5161   17.9950   20.9751 H       1  <0>1        0.0660
     38 H14         4.9197   18.5351   19.3874 H       1  <0>1        0.0660
     39 H15         3.8027   18.4310   20.7694 H       1  <0>1        0.0660
@<TRIPOS>BOND
     1     1     2    1
     2     1    25    1
     3     1    26    1
     4     1    27    1
     5     2     3    1
     6     3    12   ar
     7     3     4   ar
     8     4     5   ar
     9     4    28    1
    10     5    10   ar
    11     5     6   ar
    12     6     7   ar
    13     6    29    1
    14     7     8   ar
    15     7    15    1
    16     8     9   ar
    17     8    30    1
    18     9    10   ar
    19    10    11   ar
    20    11    12   ar
    21    11    31    1
    22    12    13    1
    23    13    14    1
    24    14    32    1
    25    14    33    1
    26    14    34    1
    27    15    20   ar
    28    15    16   ar
    29    16    17   ar
    30    16    35    1
    31    17    18   ar
    32    17    24    1
    33    18    19   ar
    34    18    22    1
    35    19    20   ar
    36    19    21    1
    37    20    36    1
    38    22    23    1
    39    23    37    1
    40    23    38    1
    41    23    39    1
@<TRIPOS>MOLECULE
ZINC03834044
 38 40 0 0 0
SMALL
USER_CHARGES

@<TRIPOS>ATOM
      1 C1          6.2802    7.4680   15.6447 C.3     1  <0>1        0.0790
      2 O1          7.6913    7.5707   15.4438 O.3     1  <0>1       -0.4914
      3 C2          8.3236    8.6202   16.0327 C.ar    1  <0>1        0.1622
      4 C3          7.6047    9.5117   16.7743 C.ar    1  <0>1       -0.0071
      5 C4          8.2581   10.5956   17.3831 C.ar    1  <0>1        0.0043
      6 C5          7.5500   11.5353   18.1546 C.ar    1  <0>1       -0.0476
      7 C6          8.2489   12.5656   18.7178 C.ar    1  <0>1       -0.0256
      8 C7          9.6238   12.6630   18.5200 C.ar    1  <0>1        0.0317
      9 N1         10.2812   11.7859   17.8001 N.ar    1  <0>1       -0.2546
     10 C8          9.6579   10.7538   17.2218 C.ar    1  <0>1        0.0747
     11 C9         10.3704    9.8154   16.4565 C.ar    1  <0>1        0.0097
     12 C10         9.7089    8.7748   15.8719 C.ar    1  <0>1        0.1635
     13 O2         10.4020    7.8731   15.1284 O.3     1  <0>1       -0.4914
     14 C11        11.8098    8.0830   15.0005 C.3     1  <0>1        0.0790
     15 C12         7.5323   13.5954   19.5526 C.3     1  <0>1       -0.0144
     16 C13         7.7545   15.0028   18.9611 C.3     1  <0>1       -0.0462
     17 C14         7.8809   15.9204   20.2035 C.3     1  <0>1       -0.0525
     18 C15         8.6731   15.0394   21.2010 C.3     1  <0>1       -0.0525
     19 C16         8.1157   13.6187   20.9762 C.3     1  <0>1       -0.0462
     20 H1          6.0707    7.3756   16.7104 H       1  <0>1        0.0660
     21 H2          5.7916    8.3608   15.2544 H       1  <0>1        0.0660
     22 H3          5.9019    6.5891   15.1226 H       1  <0>1        0.0660
     23 H4          6.5388    9.3842   16.8927 H       1  <0>1        0.0662
     24 H5          6.4835   11.4445   18.2980 H       1  <0>1        0.0627
     25 H6         10.1632   13.4827   18.9713 H       1  <0>1        0.0832
     26 H7         11.4376    9.9194   16.3281 H       1  <0>1        0.0677
     27 H8         11.9919    9.0503   14.5324 H       1  <0>1        0.0660
     28 H9         12.2402    7.2940   14.3838 H       1  <0>1        0.0660
     29 H10        12.2710    8.0646   15.9880 H       1  <0>1        0.0660
     30 H11         6.4665   13.3700   19.5894 H       1  <0>1        0.0349
     31 H12         8.6718   15.0289   18.3729 H       1  <0>1        0.0271
     32 H13         6.9010   15.2997   18.3518 H       1  <0>1        0.0271
     33 H14         6.8970   16.1668   20.6026 H       1  <0>1        0.0265
     34 H15         8.4380   16.8253   19.9604 H       1  <0>1        0.0265
     35 H16         8.4897   15.3635   22.2254 H       1  <0>1        0.0265
     36 H17         9.7389   15.0711   20.9750 H       1  <0>1        0.0265
     37 H18         7.3328   13.4052   21.7041 H       1  <0>1        0.0271
     38 H19         8.9165   12.8844   21.0636 H       1  <0>1        0.0271
@<TRIPOS>BOND
     1     1     2    1
     2     1    20    1
     3     1    21    1
     4     1    22    1
     5     2     3    1
     6     3    12   ar
     7     3     4   ar
     8     4     5   ar
     9     4    23    1
    10     5    10   ar
    11     5     6   ar
    12     6     7   ar
    13     6    24    1
    14     7     8   ar
    15     7    15    1
    16     8     9   ar
    17     8    25    1
    18     9    10   ar
    19    10    11   ar
    20    11    12   ar
    21    11    26    1
    22    12    13    1
    23    13    14    1
    24    14    27    1
    25    14    28    1
    26    14    29    1
    27    15    19    1
    28    15    16    1
    29    15    30    1
    30    16    17    1
    31    16    31    1
    32    16    32    1
    33    17    18    1
    34    17    33    1
    35    17    34    1
    36    18    19    1
    37    18    35    1
    38    18    36    1
    39    19    37    1
    40    19    38    1
@<TRIPOS>MOLECULE
ZINC03834045
 47 49 0 0 0
SMALL
USER_CHARGES

@<TRIPOS>ATOM
      1 C1         12.4474    5.7482   15.2712 C.3     1  <0>1        0.0790
      2 O1         13.2959    6.8977   15.2430 O.3     1  <0>1       -0.4914
      3 C2         12.7009    8.0986   15.0155 C.ar    1  <0>1        0.1622
      4 C3         11.3507    8.1581   14.8278 C.ar    1  <0>1       -0.0071
      5 C4         10.7359    9.3988   14.5928 C.ar    1  <0>1        0.0043
      6 C5          9.3467    9.4995   14.3944 C.ar    1  <0>1       -0.0478
      7 C6          8.8156   10.7374   14.1651 C.ar    1  <0>1       -0.0287
      8 C7          9.6448   11.8560   14.1423 C.ar    1  <0>1        0.0314
      9 N1         10.9392   11.7593   14.3280 N.ar    1  <0>1       -0.2546
     10 C8         11.5230   10.5775   14.5527 C.ar    1  <0>1        0.0747
     11 C9         12.9108   10.4825   14.7504 C.ar    1  <0>1        0.0097
     12 C10        13.4815    9.2638   14.9767 C.ar    1  <0>1        0.1635
     13 O2         14.8241    9.1776   15.1677 O.3     1  <0>1       -0.4914
     14 C11        15.5662   10.3978   15.1169 C.3     1  <0>1        0.0790
     15 C12         7.3335   10.8925   13.9410 C.3     1  <0>1       -0.0260
     16 C13         6.6363   11.1238   15.2831 C.3     1  <0>1       -0.0462
     17 C14         5.1315   11.2813   15.0557 C.3     1  <0>1       -0.0407
     18 C15         4.8690   12.5485   14.2395 C.3     1  <0>1       -0.0502
     19 C16         3.3641   12.7060   14.0120 C.3     1  <0>1       -0.0528
     20 C17         2.6527   12.8125   15.3623 C.3     1  <0>1       -0.0530
     21 C18         2.9152   11.5453   16.1785 C.3     1  <0>1       -0.0528
     22 C19         4.4201   11.3878   16.4060 C.3     1  <0>1       -0.0502
     23 H1         11.7068    5.8626   16.0627 H       1  <0>1        0.0660
     24 H2         11.9408    5.6469   14.3114 H       1  <0>1        0.0660
     25 H3         13.0474    4.8583   15.4610 H       1  <0>1        0.0660
     26 H4         10.7580    7.2558   14.8594 H       1  <0>1        0.0662
     27 H5          8.7178    8.6217   14.4182 H       1  <0>1        0.0627
     28 H6          9.2105   12.8286   13.9637 H       1  <0>1        0.0832
     29 H7         13.5240   11.3710   14.7228 H       1  <0>1        0.0677
     30 H8         15.4387   10.8602   14.1382 H       1  <0>1        0.0660
     31 H9         15.2035   11.0760   15.8893 H       1  <0>1        0.0660
     32 H10        16.6226   10.1878   15.2848 H       1  <0>1        0.0660
     33 H11         7.1523   11.7446   13.2858 H       1  <0>1        0.0314
     34 H12         6.9394    9.9879   13.4780 H       1  <0>1        0.0314
     35 H13         6.8175   10.2717   15.9383 H       1  <0>1        0.0271
     36 H14         7.0304   12.0285   15.7461 H       1  <0>1        0.0271
     37 H15         4.7534   10.4148   14.5131 H       1  <0>1        0.0301
     38 H16         5.2471   13.4149   14.7820 H       1  <0>1        0.0268
     39 H17         5.3759   12.4726   13.2775 H       1  <0>1        0.0268
     40 H18         2.9860   11.8395   13.4695 H       1  <0>1        0.0265
     41 H19         3.1771   13.6088   13.4305 H       1  <0>1        0.0265
     42 H20         1.5806   12.9247   15.2003 H       1  <0>1        0.0265
     43 H21         3.0308   13.6789   15.9049 H       1  <0>1        0.0265
     44 H22         2.5371   10.6789   15.6360 H       1  <0>1        0.0265
     45 H23         2.4084   11.6212   17.1405 H       1  <0>1        0.0265
     46 H24         4.6071   10.4850   16.9875 H       1  <0>1        0.0268
     47 H25         4.7981   12.2543   16.9485 H       1  <0>1        0.0268
@<TRIPOS>BOND
     1     1     2    1
     2     1    23    1
     3     1    24    1
     4     1    25    1
     5     2     3    1
     6     3    12   ar
     7     3     4   ar
     8     4     5   ar
     9     4    26    1
    10     5    10   ar
    11     5     6   ar
    12     6     7   ar
    13     6    27    1
    14     7     8   ar
    15     7    15    1
    16     8     9   ar
    17     8    28    1
    18     9    10   ar
    19    10    11   ar
    20    11    12   ar
    21    11    29    1
    22    12    13    1
    23    13    14    1
    24    14    30    1
    25    14    31    1
    26    14    32    1
    27    15    16    1
    28    15    33    1
    29    15    34    1
    30    16    17    1
    31    16    35    1
    32    16    36    1
    33    17    22    1
    34    17    18    1
    35    17    37    1
    36    18    19    1
    37    18    38    1
    38    18    39    1
    39    19    20    1
    40    19    40    1
    41    19    41    1
    42    20    21    1
    43    20    42    1
    44    20    43    1
    45    21    22    1
    46    21    44    1
    47    21    45    1
    48    22    46    1
    49    22    47    1
@<TRIPOS>MOLECULE
ZINC03834046
 52 55 0 0 0
SMALL
USER_CHARGES

@<TRIPOS>ATOM
      1 C1          6.9517   14.6242   18.4417 C.3     1  <0>1       -0.0380
      2 C2          7.8269   13.6390   17.7107 C.ar    1  <0>1       -0.0294
      3 C3          7.8542   13.4385   16.3695 C.ar    1  <0>1        0.0053
      4 N1          8.7690   12.4774   16.0857 N.ar    1  <0>1       -0.3606
      5 H1          8.9872   12.1475   15.2000 H       1  <0>1        0.1653
      6 C4          9.3339   12.0455   17.2667 C.ar    1  <0>1        0.0434
      7 C5          8.7517   12.7715   18.2948 C.ar    1  <0>1       -0.0193
      8 C6          9.0592   12.6473   19.7648 C.3     1  <0>1       -0.0154
      9 C7         10.1889   13.6113   20.1327 C.3     1  <0>1        0.0488
     10 C8         10.4964   13.4872   21.6028 C.2     1  <0>1        0.3050
     11 O1          9.8757   12.7076   22.2861 O.2     1  <0>1       -0.2510
     12 C9         10.3257   11.0528   17.4035 C.2     1  <0>1       -0.0254
     13 C10        10.3449    9.9718   16.5423 C.2     1  <0>1        0.0479
     14 C11        11.3843    8.9247   16.4363 C.ar    1  <0>1        0.0084
     15 C12        12.5830    8.7017   17.1098 C.ar    1  <0>1       -0.0515
     16 C13        13.3608    7.6131   16.7840 C.ar    1  <0>1       -0.0533
     17 C14        12.9471    6.7355   15.7798 C.ar    1  <0>1       -0.0160
     18 C15        11.7535    6.9569   15.0999 C.ar    1  <0>1       -0.0322
     19 C16        10.9606    8.0486   15.4261 C.ar    1  <0>1        0.0421
     20 N2          9.7450    8.4921   14.9185 N.am    1  <0>1       -0.2809
     21 C17         9.3374    9.6141   15.5352 C.2     1  <0>1        0.2490
     22 O2          8.3117   10.2278   15.2999 O.2     1  <0>1       -0.2698
     23 C18        13.7878    5.5643   15.4318 C.ar    1  <0>1       -0.0144
     24 C19        13.3806    4.6844   14.4297 C.ar    1  <0>1       -0.0538
     25 C20        14.1672    3.5982   14.1041 C.ar    1  <0>1       -0.0577
     26 C21        15.3545    3.3733   14.7760 C.ar    1  <0>1       -0.0199
     27 C22        15.7674    4.2446   15.7745 C.ar    1  <0>1        0.1207
     28 C23        14.9865    5.3402   16.1046 C.ar    1  <0>1       -0.0122
     29 O3         16.9377    4.0225   16.4288 O.3     1  <0>1       -0.4951
     30 C24        17.6919    2.8736   16.0372 C.3     1  <0>1        0.0788
     31 H2          7.4712   15.5787   18.5263 H       1  <0>1        0.0278
     32 H3          6.0224   14.7640   17.8897 H       1  <0>1        0.0278
     33 H4          6.7286   14.2424   19.4381 H       1  <0>1        0.0278
     34 H5          7.2489   13.9621   15.6444 H       1  <0>1        0.0810
     35 H6          8.1692   12.8925   20.3441 H       1  <0>1        0.0319
     36 H7          9.3670   11.6255   19.9866 H       1  <0>1        0.0319
     37 H8         11.0789   13.3661   19.5533 H       1  <0>1        0.0381
     38 H9          9.8811   14.6332   19.9109 H       1  <0>1        0.0381
     39 H10        11.0702   11.1371   18.1812 H       1  <0>1        0.0646
     40 H11        12.9019    9.3815   17.8862 H       1  <0>1        0.0624
     41 H12        14.2907    7.4384   17.3047 H       1  <0>1        0.0624
     42 H13        11.4415    6.2766   14.3212 H       1  <0>1        0.0642
     43 H14         9.2537    8.0482   14.2097 H       1  <0>1        0.1552
     44 H15        12.4515    4.8548   13.9060 H       1  <0>1        0.0624
     45 H16        13.8524    2.9195   13.3251 H       1  <0>1        0.0619
     46 H17        15.9647    2.5198   14.5201 H       1  <0>1        0.0654
     47 H18        15.3066    6.0190   16.8814 H       1  <0>1        0.0660
     48 H19        18.6005    2.8140   16.6364 H       1  <0>1        0.0660
     49 H20        17.0939    1.9759   16.1938 H       1  <0>1        0.0660
     50 H21        17.9565    2.9547   14.9830 H       1  <0>1        0.0660
     51 O4         11.4598   14.2427   22.1531 O.3     1  <0>1       -0.4806
     52 H          11.9411   14.8473   21.6232 H       1  <0>1        0.2951
@<TRIPOS>BOND
     1     1     2    1
     2     1    31    1
     3     1    32    1
     4     1    33    1
     5     2     7   ar
     6     2     3   ar
     7     3     4   ar
     8     3    34    1
     9     4     5    1
    10     4     6   ar
    11     6     7   ar
    12     6    12    1
    13     7     8    1
    14     8     9    1
    15     8    35    1
    16     8    36    1
    17     9    10    1
    18     9    37    1
    19     9    38    1
    20    10    11    2
    21    10    51    1
    22    12    13    2
    23    12    39    1
    24    13    21    1
    25    13    14    1
    26    14    19   ar
    27    14    15   ar
    28    15    16   ar
    29    15    40    1
    30    16    17   ar
    31    16    41    1
    32    17    18   ar
    33    17    23    1
    34    18    19   ar
    35    18    42    1
    36    19    20    1
    37    20    21   am
    38    20    43    1
    39    21    22    2
    40    23    28   ar
    41    23    24   ar
    42    24    25   ar
    43    24    44    1
    44    25    26   ar
    45    25    45    1
    46    26    27   ar
    47    26    46    1
    48    27    28   ar
    49    27    29    1
    50    28    47    1
    51    29    30    1
    52    30    48    1
    53    30    49    1
    54    30    50    1
    55    51    52    1
@<TRIPOS>MOLECULE
ZINC03834047
 45 47 0 0 0
SMALL
USER_CHARGES

@<TRIPOS>ATOM
      1 C1         11.0570    4.7470   15.2342 C.3     1  <0>1       -0.0375
      2 C2         12.1803    5.7515   15.2422 C.ar    1  <0>1       -0.0223
      3 C3         13.5360    5.4794   15.4370 C.ar    1  <0>1       -0.0231
      4 C4         14.2123    6.6528   15.3678 C.ar    1  <0>1        0.0167
      5 N1         13.3287    7.6585   15.1446 N.ar    1  <0>1       -0.3581
      6 H1         13.5514    8.5985   15.0569 H       1  <0>1        0.1656
      7 C5         12.0622    7.1210   15.0634 C.ar    1  <0>1        0.0434
      8 C6         10.8656    7.8336   14.8388 C.2     1  <0>1       -0.0254
      9 C7         10.7200    9.1136   15.3371 C.2     1  <0>1        0.0479
     10 C8          9.6147   10.0620   15.0735 C.ar    1  <0>1        0.0086
     11 C9          8.4573    9.9864   14.3046 C.ar    1  <0>1       -0.0486
     12 C10         7.5964   11.0627   14.2546 C.ar    1  <0>1       -0.0193
     13 C11         7.8849   12.2186   14.9707 C.ar    1  <0>1        0.1219
     14 C12         9.0306   12.2988   15.7443 C.ar    1  <0>1        0.0019
     15 C13         9.9099   11.2237   15.8004 C.ar    1  <0>1        0.0450
     16 N2         11.1129   11.0476   16.4729 N.am    1  <0>1       -0.2808
     17 C14        11.6319    9.8305   16.2380 C.2     1  <0>1        0.2490
     18 O1         12.6759    9.3976   16.6927 O.2     1  <0>1       -0.2698
     19 O2          7.0319   13.2754   14.9173 O.3     1  <0>1       -0.4951
     20 C15         5.8640   13.1262   14.1077 C.3     1  <0>1        0.0788
     21 C16        15.7028    6.8146   15.5201 C.3     1  <0>1       -0.0242
     22 C17        14.1413    4.1205   15.6779 C.3     1  <0>1       -0.0157
     23 C18        14.5150    3.4838   14.3379 C.3     1  <0>1        0.0488
     24 C19        15.1203    2.1249   14.5788 C.2     1  <0>1        0.3050
     25 O3         15.2406    1.7085   15.7067 O.2     1  <0>1       -0.2510
     26 H2         10.9030    4.3822   14.2187 H       1  <0>1        0.0278
     27 H3         10.1432    5.2208   15.5926 H       1  <0>1        0.0278
     28 H4         11.3124    3.9112   15.8856 H       1  <0>1        0.0278
     29 H5         10.0632    7.3782   14.2773 H       1  <0>1        0.0646
     30 H6          8.2342    9.0879   13.7486 H       1  <0>1        0.0625
     31 H7          6.6973   11.0073   13.6588 H       1  <0>1        0.0654
     32 H8          9.2470   13.2019   16.2957 H       1  <0>1        0.0673
     33 H9         11.5257   11.7179   17.0397 H       1  <0>1        0.1552
     34 H10         5.2712   14.0398   14.1532 H       1  <0>1        0.0660
     35 H11         6.1589   12.9355   13.0759 H       1  <0>1        0.0660
     36 H12         5.2707   12.2895   14.4765 H       1  <0>1        0.0660
     37 H13        15.9451    6.9762   16.5705 H       1  <0>1        0.0292
     38 H14        16.2041    5.9138   15.1660 H       1  <0>1        0.0292
     39 H15        16.0371    7.6707   14.9341 H       1  <0>1        0.0292
     40 H16        15.0355    4.2249   16.2925 H       1  <0>1        0.0319
     41 H17        13.4188    3.4869   16.1924 H       1  <0>1        0.0319
     42 H18        13.6209    3.3794   13.7233 H       1  <0>1        0.0381
     43 H19        15.2375    4.1174   13.8234 H       1  <0>1        0.0381
     44 O4         15.5260    1.3772   13.5405 O.3     1  <0>1       -0.4806
     45 H          15.4328    1.7001   12.6659 H       1  <0>1        0.2951
@<TRIPOS>BOND
     1     1     2    1
     2     1    26    1
     3     1    27    1
     4     1    28    1
     5     2     7   ar
     6     2     3   ar
     7     3     4   ar
     8     3    22    1
     9     4     5   ar
    10     4    21    1
    11     5     6    1
    12     5     7   ar
    13     7     8    1
    14     8     9    2
    15     8    29    1
    16     9    17    1
    17     9    10    1
    18    10    15   ar
    19    10    11   ar
    20    11    12   ar
    21    11    30    1
    22    12    13   ar
    23    12    31    1
    24    13    14   ar
    25    13    19    1
    26    14    15   ar
    27    14    32    1
    28    15    16    1
    29    16    17   am
    30    16    33    1
    31    17    18    2
    32    19    20    1
    33    20    34    1
    34    20    35    1
    35    20    36    1
    36    21    37    1
    37    21    38    1
    38    21    39    1
    39    22    23    1
    40    22    40    1
    41    22    41    1
    42    23    24    1
    43    23    42    1
    44    23    43    1
    45    24    25    2
    46    24    44    1
    47    44    45    1
@<TRIPOS>MOLECULE
ZINC03834050
 36 39 0 0 0
SMALL
USER_CHARGES

@<TRIPOS>ATOM
      1 C1          8.2149   10.8624   11.6816 C.ar    1  <0>1       -0.0460
      2 C2          9.1667   10.1256   11.0060 C.ar    1  <0>1       -0.0388
      3 C3         10.0406    9.3033   11.7080 C.ar    1  <0>1        0.0416
      4 C4          9.9361    9.2317   13.1042 C.ar    1  <0>1        0.0094
      5 C5          8.9704    9.9738   13.7758 C.ar    1  <0>1       -0.0381
      6 C6          8.1108   10.7852   13.0610 C.ar    1  <0>1        0.0186
      7 Br1         6.7957   11.7977   13.9672 Br      1  <0>1       -0.0503
      8 C7         10.9851    8.2894   13.5528 C.2     1  <0>1        0.0479
      9 C8         11.2671    7.9004   14.8484 C.2     1  <0>1       -0.0256
     10 C9         12.3104    6.9853   15.0985 C.ar    1  <0>1        0.0404
     11 C10        12.1787    5.6119   15.2520 C.ar    1  <0>1       -0.0335
     12 C11        13.4534    5.1053   15.4794 C.ar    1  <0>1       -0.0263
     13 C12        14.3306    6.1468   15.4726 C.ar    1  <0>1        0.0196
     14 N1         13.6482    7.2917   15.2416 N.ar    1  <0>1       -0.3581
     15 H1         14.0346    8.1797   15.1860 H       1  <0>1        0.1656
     16 C13        15.8169    5.9956   15.6944 C.3     1  <0>1       -0.0122
     17 C14        16.0756    4.6201   16.3206 C.3     1  <0>1       -0.0474
     18 C15        15.3617    3.5420   15.5007 C.3     1  <0>1       -0.0487
     19 C16        13.8466    3.6661   15.7028 C.3     1  <0>1       -0.0260
     20 C17        11.6613    7.8566   12.3231 C.2     1  <0>1        0.2490
     21 O1         12.5926    7.0740   12.2560 O.2     1  <0>1       -0.2698
     22 N2         11.0733    8.4751   11.2851 N.am    1  <0>1       -0.2809
     23 H2          7.5425   11.5023   11.1294 H       1  <0>1        0.0629
     24 H3          9.2354   10.1913    9.9302 H       1  <0>1        0.0637
     25 H4          8.8926    9.9157   14.8514 H       1  <0>1        0.0635
     26 H5         10.6885    8.2974   15.6694 H       1  <0>1        0.0646
     27 H6         11.2611    5.0446   15.2022 H       1  <0>1        0.0641
     28 H7         16.3396    6.0692   14.7407 H       1  <0>1        0.0328
     29 H8         16.1690    6.7771   16.3677 H       1  <0>1        0.0328
     30 H9         15.6969    4.6093   17.3426 H       1  <0>1        0.0269
     31 H10        17.1471    4.4206   16.3281 H       1  <0>1        0.0269
     32 H11        15.6927    2.5569   15.8294 H       1  <0>1        0.0269
     33 H12        15.5992    3.6716   14.4447 H       1  <0>1        0.0269
     34 H13        13.5860    3.3678   16.7182 H       1  <0>1        0.0314
     35 H14        13.3267    3.0283   14.9880 H       1  <0>1        0.0314
     36 H15        11.3361    8.3581   10.3587 H       1  <0>1        0.1552
@<TRIPOS>BOND
     1     1     6   ar
     2     1     2   ar
     3     1    23    1
     4     2     3   ar
     5     2    24    1
     6     3    22    1
     7     3     4   ar
     8     4     5   ar
     9     4     8    1
    10     5     6   ar
    11     5    25    1
    12     6     7    1
    13     8     9    2
    14     8    20    1
    15     9    10    1
    16     9    26    1
    17    10    14   ar
    18    10    11   ar
    19    11    12   ar
    20    11    27    1
    21    12    19    1
    22    12    13   ar
    23    13    14   ar
    24    13    16    1
    25    14    15    1
    26    16    17    1
    27    16    28    1
    28    16    29    1
    29    17    18    1
    30    17    30    1
    31    17    31    1
    32    18    19    1
    33    18    32    1
    34    18    33    1
    35    19    34    1
    36    19    35    1
    37    20    21    2
    38    20    22   am
    39    22    36    1
@<TRIPOS>MOLECULE
ZINC04617831
 59 63 0 0 0
SMALL
USER_CHARGES

@<TRIPOS>ATOM
      1 C1          4.1639   11.3078   11.5300 C.3     1  <0>1        0.0788
      2 O1          5.4886   11.5153   12.0241 O.3     1  <0>1       -0.4945
      3 C2          5.9269   12.7992   12.0933 C.ar    1  <0>1        0.1278
      4 C3          5.0999   13.8386   11.6988 C.ar    1  <0>1       -0.0193
      5 C4          5.5490   15.1439   11.7644 C.ar    1  <0>1       -0.0583
      6 C5          6.8230   15.4219   12.2278 C.ar    1  <0>1       -0.0610
      7 C6          7.6557   14.3970   12.6285 C.ar    1  <0>1       -0.0505
      8 C7          7.2130   13.0771   12.5672 C.ar    1  <0>1        0.0238
      9 C8          8.1034   11.9723   12.9964 C.ar    1  <0>1       -0.0126
     10 C9          7.6328   11.0089   13.8911 C.ar    1  <0>1       -0.0532
     11 C10         8.4569    9.9809   14.2917 C.ar    1  <0>1       -0.0515
     12 C11         9.7569    9.9011   13.7983 C.ar    1  <0>1        0.0084
     13 C12        10.2406   10.8677   12.9042 C.ar    1  <0>1        0.0422
     14 C13         9.4035   11.9005   12.5050 C.ar    1  <0>1       -0.0320
     15 N1         11.5564   10.5652   12.5737 N.am    1  <0>1       -0.2809
     16 C14        11.9760    9.4546   13.2032 C.2     1  <0>1        0.2490
     17 O2         13.0809    8.9510   13.1057 O.2     1  <0>1       -0.2698
     18 C15        10.8693    8.9535   14.0286 C.2     1  <0>1        0.0479
     19 C16        10.8659    7.8350   14.8406 C.2     1  <0>1       -0.0253
     20 C17        12.0620    7.1223   15.0638 C.ar    1  <0>1        0.0437
     21 C18        12.1795    5.7506   15.2422 C.ar    1  <0>1       -0.0187
     22 C19        13.5303    5.4804   15.4296 C.ar    1  <0>1       -0.0231
     23 C20        14.2107    6.6582   15.3671 C.ar    1  <0>1        0.0199
     24 N2         13.3300    7.6606   15.1445 N.ar    1  <0>1       -0.3579
     25 H1         13.5526    8.6006   15.0569 H       1  <0>1        0.1656
     26 C21        15.7083    6.7734   15.5269 C.3     1  <0>1       -0.0122
     27 C22        16.2280    5.4807   16.1666 C.3     1  <0>1       -0.0474
     28 C23        15.6821    4.2740   15.3994 C.3     1  <0>1       -0.0487
     29 C24        14.1776    4.1379   15.6634 C.3     1  <0>1       -0.0257
     30 C25        11.0565    4.7457   15.2343 C.3     1  <0>1       -0.0154
     31 C26        10.5132    4.5767   16.6545 C.3     1  <0>1        0.0488
     32 C27         9.3901    3.5718   16.6465 C.2     1  <0>1        0.3050
     33 O3          9.0583    3.0449   15.6111 O.2     1  <0>1       -0.2510
     34 H2          4.0895   11.6979   10.5148 H       1  <0>1        0.0660
     35 H3          3.9403   10.2410   11.5266 H       1  <0>1        0.0660
     36 H4          3.4514   11.8264   12.1715 H       1  <0>1        0.0660
     37 H5          4.1046   13.6282   11.3359 H       1  <0>1        0.0654
     38 H6          4.9028   15.9510   11.4522 H       1  <0>1        0.0619
     39 H7          7.1669   16.4445   12.2758 H       1  <0>1        0.0618
     40 H8          8.6496   14.6176   12.9890 H       1  <0>1        0.0625
     41 H9          6.6227   11.0698   14.2686 H       1  <0>1        0.0624
     42 H10         8.0940    9.2349   14.9833 H       1  <0>1        0.0624
     43 H11         9.7613   12.6487   11.8132 H       1  <0>1        0.0642
     44 H12        12.1019   11.0885   11.9658 H       1  <0>1        0.1552
     45 H13         9.9473    7.5069   15.3041 H       1  <0>1        0.0646
     46 H14        16.1720    6.9119   14.5502 H       1  <0>1        0.0328
     47 H15        15.9445    7.6217   16.1695 H       1  <0>1        0.0328
     48 H16        17.3173    5.4708   16.1319 H       1  <0>1        0.0269
     49 H17        15.8974    5.4306   17.2041 H       1  <0>1        0.0269
     50 H18        16.1927    3.3703   15.7323 H       1  <0>1        0.0269
     51 H19        15.8525    4.4152   14.3321 H       1  <0>1        0.0269
     52 H20        14.0126    3.8253   16.6945 H       1  <0>1        0.0314
     53 H21        13.7507    3.4010   14.9831 H       1  <0>1        0.0314
     54 H22        10.2590    5.0973   14.5796 H       1  <0>1        0.0319
     55 H23        11.4287    3.7877   14.8712 H       1  <0>1        0.0319
     56 H24        11.3106    4.2251   17.3091 H       1  <0>1        0.0381
     57 H25        10.1409    5.5347   17.0175 H       1  <0>1        0.0381
     58 O4          8.7585    3.2622   17.7897 O.3     1  <0>1       -0.4806
     59 H           9.0159    3.6708   18.5927 H       1  <0>1        0.2951
@<TRIPOS>BOND
     1     1     2    1
     2     1    34    1
     3     1    35    1
     4     1    36    1
     5     2     3    1
     6     3     8   ar
     7     3     4   ar
     8     4     5   ar
     9     4    37    1
    10     5     6   ar
    11     5    38    1
    12     6     7   ar
    13     6    39    1
    14     7     8   ar
    15     7    40    1
    16     8     9    1
    17     9    14   ar
    18     9    10   ar
    19    10    11   ar
    20    10    41    1
    21    11    12   ar
    22    11    42    1
    23    12    18    1
    24    12    13   ar
    25    13    14   ar
    26    13    15    1
    27    14    43    1
    28    15    16   am
    29    15    44    1
    30    16    17    2
    31    16    18    1
    32    18    19    2
    33    19    20    1
    34    19    45    1
    35    20    24   ar
    36    20    21   ar
    37    21    22   ar
    38    21    30    1
    39    22    29    1
    40    22    23   ar
    41    23    24   ar
    42    23    26    1
    43    24    25    1
    44    26    27    1
    45    26    46    1
    46    26    47    1
    47    27    28    1
    48    27    48    1
    49    27    49    1
    50    28    29    1
    51    28    50    1
    52    28    51    1
    53    29    52    1
    54    29    53    1
    55    30    31    1
    56    30    54    1
    57    30    55    1
    58    31    32    1
    59    31    56    1
    60    31    57    1
    61    32    33    2
    62    32    58    1
    63    58    59    1
@<TRIPOS>MOLECULE
ZINC04628819
 37 39 0 0 0
SMALL
USER_CHARGES

@<TRIPOS>ATOM
      1 C1         12.6221    5.2723   15.3704 C.ar    1  <0>1       -0.0616
      2 C2         13.6840    6.1581   15.3655 C.ar    1  <0>1       -0.0598
      3 C3         13.4646    7.5002   15.1241 C.ar    1  <0>1       -0.0378
      4 C4         12.1761    7.9598   14.8866 C.ar    1  <0>1        0.0481
      5 C5         11.1119    7.0678   14.8918 C.ar    1  <0>1       -0.0378
      6 C6         11.3378    5.7268   15.1333 C.ar    1  <0>1       -0.0598
      7 N1         11.9501    9.3208   14.6423 N.ar    1  <0>1       -0.2985
      8 C7         11.2345    9.8487   13.6102 C.ar    1  <0>1        0.1015
      9 N2         11.2280   11.1475   13.6892 N.ar    1  <0>1       -0.2353
     10 C8         11.9384   11.5441   14.7767 C.ar    1  <0>1        0.0928
     11 C9         12.4073   10.3796   15.4080 C.ar    1  <0>1        0.0735
     12 C10        13.1797   10.4751   16.5565 C.ar    1  <0>1       -0.0323
     13 C11        13.4761   11.7135   17.0842 C.ar    1  <0>1       -0.0179
     14 C12        13.0107   12.8714   16.4679 C.ar    1  <0>1        0.1228
     15 C13        12.2459   12.7936   15.3209 C.ar    1  <0>1        0.0075
     16 O1         13.3108   14.0867   16.9988 O.3     1  <0>1       -0.4893
     17 C14        14.1057   14.0976   18.1862 C.3     1  <0>1        0.1175
     18 C15        14.3379   15.5429   18.6313 C.3     1  <0>1        0.1120
     19 H1         14.7756   16.1102   17.8100 H       1  <0>1        0.0650
     20 C16        15.2905   15.5611   19.8284 C.3     1  <0>1        0.0733
     21 O2         15.5992   16.9137   20.1710 O.3     1  <0>1       -0.3923
     22 O3         13.0910   16.1321   19.0057 O.3     1  <0>1       -0.3861
     23 H2         12.7962    4.2234   15.5594 H       1  <0>1        0.0618
     24 H3         14.6854    5.8008   15.5550 H       1  <0>1        0.0618
     25 H4         14.2943    8.1915   15.1207 H       1  <0>1        0.0638
     26 H5         10.1086    7.4224   14.7073 H       1  <0>1        0.0638
     27 H6         10.5105    5.0326   15.1375 H       1  <0>1        0.0618
     28 H7         10.7444    9.2732   12.8388 H       1  <0>1        0.1032
     29 H8         13.5443    9.5803   17.0390 H       1  <0>1        0.0640
     30 H9         14.0732   11.7858   17.9812 H       1  <0>1        0.0655
     31 H10        11.8870   13.6949   14.8463 H       1  <0>1        0.0676
     32 H11        13.5875   13.5531   18.9755 H       1  <0>1        0.0723
     33 H12        15.0652   13.6207   17.9855 H       1  <0>1        0.0723
     34 H13        14.8158   15.0704   20.6781 H       1  <0>1        0.0584
     35 H14        16.2085   15.0332   19.5704 H       1  <0>1        0.0584
     36 H15        16.2001   17.0015   20.9235 H       1  <0>1        0.2095
     37 H16        12.6440   15.6778   19.7330 H       1  <0>1        0.2100
@<TRIPOS>BOND
     1     1     6   ar
     2     1     2   ar
     3     1    23    1
     4     2     3   ar
     5     2    24    1
     6     3     4   ar
     7     3    25    1
     8     4     5   ar
     9     4     7    1
    10     5     6   ar
    11     5    26    1
    12     6    27    1
    13     7    11   ar
    14     7     8   ar
    15     8     9   ar
    16     8    28    1
    17     9    10   ar
    18    10    15   ar
    19    10    11   ar
    20    11    12   ar
    21    12    13   ar
    22    12    29    1
    23    13    14   ar
    24    13    30    1
    25    14    15   ar
    26    14    16    1
    27    15    31    1
    28    16    17    1
    29    17    18    1
    30    17    32    1
    31    17    33    1
    32    18    19    1
    33    18    20    1
    34    18    22    1
    35    20    21    1
    36    20    34    1
    37    20    35    1
    38    21    36    1
    39    22    37    1
@<TRIPOS>MOLECULE
ZINC04628820
 34 37 0 0 0
SMALL
USER_CHARGES

@<TRIPOS>ATOM
      1 C1         11.1346   12.1730   14.4936 C.ar    1  <0>1       -0.0616
      2 C2         10.3411   11.5730   13.5332 C.ar    1  <0>1       -0.0598
      3 C3         10.0346   10.2296   13.6293 C.ar    1  <0>1       -0.0378
      4 C4         10.5242    9.4816   14.6916 C.ar    1  <0>1        0.0481
      5 C5         11.3160   10.0883   15.6575 C.ar    1  <0>1       -0.0378
      6 C6         11.6241   11.4305   15.5526 C.ar    1  <0>1       -0.0598
      7 N1         10.2151    8.1187   14.7918 N.ar    1  <0>1       -0.2985
      8 C7          8.9745    7.5628   14.7035 C.ar    1  <0>1        0.1015
      9 N2          9.0527    6.2712   14.8415 N.ar    1  <0>1       -0.2353
     10 C8         10.3481    5.9078   15.0280 C.ar    1  <0>1        0.0928
     11 C9         11.1141    7.0854   14.9931 C.ar    1  <0>1        0.0735
     12 C10        12.4910    7.0232   15.1511 C.ar    1  <0>1       -0.0323
     13 C11        13.1068    5.8044   15.3389 C.ar    1  <0>1       -0.0179
     14 C12        12.3554    4.6333   15.3718 C.ar    1  <0>1        0.1228
     15 C13        10.9831    4.6789   15.2243 C.ar    1  <0>1        0.0075
     16 O1         12.9756    3.4376   15.5579 O.3     1  <0>1       -0.4893
     17 C14        14.3961    3.4606   15.7117 C.3     1  <0>1        0.1178
     18 C15        14.9108    2.0333   15.9090 C.3     1  <0>1        0.1159
     19 H1         14.3222    1.2484   15.4342 H       1  <0>1        0.0653
     20 C16        16.4237    1.8285   16.0087 C.3     1  <0>1        0.0776
     21 O2         15.5595    1.7242   17.1442 O.3     1  <0>1       -0.3683
     22 H2         11.3729   13.2235   14.4164 H       1  <0>1        0.0618
     23 H3          9.9608   12.1553   12.7069 H       1  <0>1        0.0618
     24 H4          9.4151    9.7615   12.8786 H       1  <0>1        0.0638
     25 H5         11.6946    9.5100   16.4874 H       1  <0>1        0.0638
     26 H6         12.2436   11.9019   16.3011 H       1  <0>1        0.0618
     27 H7          8.0595    8.1136   14.5427 H       1  <0>1        0.1032
     28 H8         13.0796    7.9284   15.1265 H       1  <0>1        0.0640
     29 H9         14.1788    5.7579   15.4617 H       1  <0>1        0.0655
     30 H10        10.4046    3.7673   15.2486 H       1  <0>1        0.0676
     31 H11        14.8513    3.8909   14.8197 H       1  <0>1        0.0723
     32 H12        14.6578    4.0645   16.5806 H       1  <0>1        0.0723
     33 H13        16.8395    0.9071   15.6008 H       1  <0>1        0.0587
     34 H14        17.0615    2.7093   15.9343 H       1  <0>1        0.0587
@<TRIPOS>BOND
     1     1     6   ar
     2     1     2   ar
     3     1    22    1
     4     2     3   ar
     5     2    23    1
     6     3     4   ar
     7     3    24    1
     8     4     5   ar
     9     4     7    1
    10     5     6   ar
    11     5    25    1
    12     6    26    1
    13     7    11   ar
    14     7     8   ar
    15     8     9   ar
    16     8    27    1
    17     9    10   ar
    18    10    15   ar
    19    10    11   ar
    20    11    12   ar
    21    12    13   ar
    22    12    28    1
    23    13    14   ar
    24    13    29    1
    25    14    15   ar
    26    14    16    1
    27    15    30    1
    28    16    17    1
    29    17    18    1
    30    17    31    1
    31    17    32    1
    32    18    19    1
    33    18    21    1
    34    18    20    1
    35    20    21    1
    36    20    33    1
    37    20    34    1
@<TRIPOS>MOLECULE
ZINC04632533
 55 59 0 0 0
SMALL
USER_CHARGES

@<TRIPOS>ATOM
      1 C1         12.9304    9.9007    4.0132 C.ar    1  <0>1       -0.0617
      2 C2         11.8739    9.1587    4.5100 C.ar    1  <0>1       -0.0612
      3 C3         11.8715    8.7541    5.8294 C.ar    1  <0>1       -0.0540
      4 C4         12.9364    9.0945    6.6619 C.ar    1  <0>1       -0.0178
      5 C5         13.9956    9.8472    6.1573 C.ar    1  <0>1       -0.0540
      6 C6         13.9900   10.2413    4.8348 C.ar    1  <0>1       -0.0612
      7 C7         12.9396    8.6626    8.0806 C.ar    1  <0>1       -0.0161
      8 C8         11.8727    7.9133    8.5807 C.ar    1  <0>1       -0.0533
      9 C9         11.8722    7.5105    9.8975 C.ar    1  <0>1       -0.0515
     10 C10        12.9397    7.8468   10.7265 C.ar    1  <0>1        0.0084
     11 C11        14.0131    8.6044   10.2347 C.ar    1  <0>1        0.0421
     12 C12        14.0059    9.0060    8.9060 C.ar    1  <0>1       -0.0322
     13 N1         14.9338    8.8071   11.2560 N.am    1  <0>1       -0.2809
     14 C13        14.5292    8.2314   12.4009 C.2     1  <0>1        0.2490
     15 O1         15.1312    8.2439   13.4599 O.2     1  <0>1       -0.2698
     16 C14        13.2346    7.5841   12.1521 C.2     1  <0>1        0.0479
     17 C15        12.4614    6.8768   13.0537 C.2     1  <0>1       -0.0253
     18 C16        12.8181    6.8476   14.4174 C.ar    1  <0>1        0.0437
     19 C17        12.6384    5.7835   15.2908 C.ar    1  <0>1       -0.0187
     20 C18        13.1299    6.1862   16.5272 C.ar    1  <0>1       -0.0231
     21 C19        13.5935    7.4608   16.4043 C.ar    1  <0>1        0.0199
     22 N2         13.4103    7.8715   15.1284 N.ar    1  <0>1       -0.3579
     23 H1         13.6541    8.7404   14.7729 H       1  <0>1        0.1656
     24 C20        14.2048    8.2463   17.5403 C.3     1  <0>1       -0.0122
     25 C21        13.8296    7.5614   18.8596 C.3     1  <0>1       -0.0474
     26 C22        14.1497    6.0674   18.7707 C.3     1  <0>1       -0.0487
     27 C23        13.1665    5.3901   17.8081 C.3     1  <0>1       -0.0257
     28 C24        12.0271    4.4460   14.9610 C.3     1  <0>1       -0.0154
     29 C25        10.5173    4.5020   15.2018 C.3     1  <0>1        0.0488
     30 C26         9.9061    3.1646   14.8720 C.2     1  <0>1        0.3050
     31 O2         10.6063    2.2595   14.4843 O.2     1  <0>1       -0.2510
     32 H2         12.9283   10.2148    2.9799 H       1  <0>1        0.0618
     33 H3         11.0492    8.8959    3.8642 H       1  <0>1        0.0618
     34 H4         11.0462    8.1746    6.2160 H       1  <0>1        0.0624
     35 H5         14.8209   10.1178    6.7991 H       1  <0>1        0.0624
     36 H6         14.8124   10.8204    4.4415 H       1  <0>1        0.0618
     37 H7         11.0480    7.6501    7.9350 H       1  <0>1        0.0624
     38 H8         11.0476    6.9309   10.2856 H       1  <0>1        0.0624
     39 H9         14.8282    9.5854    8.5127 H       1  <0>1        0.0642
     40 H10        15.7627    9.3006   11.1551 H       1  <0>1        0.1552
     41 H11        11.5841    6.3467   12.7136 H       1  <0>1        0.0646
     42 H12        15.2893    8.2648   17.4319 H       1  <0>1        0.0328
     43 H13        13.8173    9.2651   17.5324 H       1  <0>1        0.0328
     44 H14        14.3993    8.0071   19.6750 H       1  <0>1        0.0269
     45 H15        12.7639    7.6934   19.0469 H       1  <0>1        0.0269
     46 H16        14.0592    5.6168   19.7590 H       1  <0>1        0.0269
     47 H17        15.1672    5.9357   18.4029 H       1  <0>1        0.0269
     48 H18        12.1725    5.3672   18.2547 H       1  <0>1        0.0314
     49 H19        13.4990    4.3734   17.5990 H       1  <0>1        0.0314
     50 H20        12.2197    4.2064   13.9153 H       1  <0>1        0.0319
     51 H21        12.4682    3.6783   15.5968 H       1  <0>1        0.0319
     52 H22        10.3247    4.7416   16.2476 H       1  <0>1        0.0381
     53 H23        10.0762    5.2698   14.5660 H       1  <0>1        0.0381
     54 O3          8.5838    2.9788   15.0091 O.3     1  <0>1       -0.4806
     55 H           8.0407    3.6807   15.3098 H       1  <0>1        0.2951
@<TRIPOS>BOND
     1     1     6   ar
     2     1     2   ar
     3     1    32    1
     4     2     3   ar
     5     2    33    1
     6     3     4   ar
     7     3    34    1
     8     4     5   ar
     9     4     7    1
    10     5     6   ar
    11     5    35    1
    12     6    36    1
    13     7    12   ar
    14     7     8   ar
    15     8     9   ar
    16     8    37    1
    17     9    10   ar
    18     9    38    1
    19    10    16    1
    20    10    11   ar
    21    11    12   ar
    22    11    13    1
    23    12    39    1
    24    13    14   am
    25    13    40    1
    26    14    15    2
    27    14    16    1
    28    16    17    2
    29    17    18    1
    30    17    41    1
    31    18    22   ar
    32    18    19   ar
    33    19    20   ar
    34    19    28    1
    35    20    27    1
    36    20    21   ar
    37    21    22   ar
    38    21    24    1
    39    22    23    1
    40    24    25    1
    41    24    42    1
    42    24    43    1
    43    25    26    1
    44    25    44    1
    45    25    45    1
    46    26    27    1
    47    26    46    1
    48    26    47    1
    49    27    48    1
    50    27    49    1
    51    28    29    1
    52    28    50    1
    53    28    51    1
    54    29    30    1
    55    29    52    1
    56    29    53    1
    57    30    31    2
    58    30    54    1
    59    54    55    1
@<TRIPOS>MOLECULE
ZINC04632535
 59 63 0 0 0
SMALL
USER_CHARGES

@<TRIPOS>ATOM
      1 C1         17.6913    2.8728   16.0375 C.3     1  <0>1        0.0788
      2 O1         16.9376    4.0222   16.4286 O.3     1  <0>1       -0.4951
      3 C2         15.7672    4.2444   15.7746 C.ar    1  <0>1        0.1207
      4 C3         15.3536    3.3725   14.7764 C.ar    1  <0>1       -0.0199
      5 C4         14.1666    3.5974   14.1049 C.ar    1  <0>1       -0.0577
      6 C5         13.3802    4.6844   14.4303 C.ar    1  <0>1       -0.0538
      7 C6         13.7879    5.5643   15.4315 C.ar    1  <0>1       -0.0144
      8 C7         14.9871    5.3401   16.1043 C.ar    1  <0>1       -0.0122
      9 C8         12.9474    6.7356   15.7798 C.ar    1  <0>1       -0.0160
     10 C9         13.3612    7.6130   16.7840 C.ar    1  <0>1       -0.0533
     11 C10        12.5837    8.7018   17.1100 C.ar    1  <0>1       -0.0515
     12 C11        11.3852    8.9252   16.4364 C.ar    1  <0>1        0.0084
     13 C12        10.9612    8.0492   15.4261 C.ar    1  <0>1        0.0421
     14 C13        11.7535    6.9571   15.1002 C.ar    1  <0>1       -0.0322
     15 N1          9.7454    8.4926   14.9189 N.am    1  <0>1       -0.2809
     16 C14         9.3378    9.6145   15.5361 C.2     1  <0>1        0.2490
     17 O2          8.3119   10.2280   15.3012 O.2     1  <0>1       -0.2698
     18 C15        10.3457    9.9721   16.5429 C.2     1  <0>1        0.0479
     19 C16        10.3267   11.0532   17.4041 C.2     1  <0>1       -0.0253
     20 C17         9.3346   12.0458   17.2677 C.ar    1  <0>1        0.0437
     21 C18         8.7441   12.7638   18.2988 C.ar    1  <0>1       -0.0187
     22 C19         7.8278   13.6316   17.7156 C.ar    1  <0>1       -0.0231
     23 C20         7.8572   13.4361   16.3683 C.ar    1  <0>1        0.0199
     24 N2          8.7687   12.4772   16.0854 N.ar    1  <0>1       -0.3579
     25 H1          8.9880   12.1482   15.1997 H       1  <0>1        0.1656
     26 C21         6.9901   14.1924   15.3898 C.3     1  <0>1       -0.0122
     27 C22         5.8441   14.8505   16.1670 C.3     1  <0>1       -0.0474
     28 C23         6.4121   15.6209   17.3619 C.3     1  <0>1       -0.0487
     29 C24         6.9326   14.6286   18.4088 C.3     1  <0>1       -0.0257
     30 C25         9.0418   12.6300   19.7701 C.3     1  <0>1       -0.0154
     31 C26        10.1667   13.5939   20.1525 C.3     1  <0>1        0.0488
     32 C27        10.4644   13.4602   21.6237 C.2     1  <0>1        0.3050
     33 O3          9.8407   12.6745   22.2973 O.2     1  <0>1       -0.2510
     34 H2         17.0931    1.9753   16.1947 H       1  <0>1        0.0660
     35 H3         17.9556    2.9532   14.9831 H       1  <0>1        0.0660
     36 H4         18.6001    2.8132   16.6364 H       1  <0>1        0.0660
     37 H5         15.9633    2.5185   14.5208 H       1  <0>1        0.0654
     38 H6         13.8515    2.9186   13.3262 H       1  <0>1        0.0619
     39 H7         12.4512    4.8551   13.9066 H       1  <0>1        0.0624
     40 H8         15.3074    6.0187   16.8811 H       1  <0>1        0.0660
     41 H9         14.2910    7.4380   17.3048 H       1  <0>1        0.0624
     42 H10        12.9027    9.3815   17.8863 H       1  <0>1        0.0624
     43 H11        11.4414    6.2767   14.3217 H       1  <0>1        0.0642
     44 H12         9.2541    8.0492   14.2098 H       1  <0>1        0.1552
     45 H13        11.0716   11.1374   18.1815 H       1  <0>1        0.0646
     46 H14         7.5827   14.9589   14.8905 H       1  <0>1        0.0328
     47 H15         6.5840   13.5026   14.6500 H       1  <0>1        0.0328
     48 H16         5.3095   15.5386   15.5121 H       1  <0>1        0.0269
     49 H17         5.1585   14.0818   16.5234 H       1  <0>1        0.0269
     50 H18         7.2302   16.2588   17.0274 H       1  <0>1        0.0269
     51 H19         5.6282   16.2367   17.8031 H       1  <0>1        0.0269
     52 H20         7.4995   15.1629   19.1712 H       1  <0>1        0.0314
     53 H21         6.0934   14.1090   18.8714 H       1  <0>1        0.0314
     54 H22         8.1471   12.8693   20.3450 H       1  <0>1        0.0319
     55 H23         9.3503   11.6074   19.9869 H       1  <0>1        0.0319
     56 H24        11.0613   13.3546   19.5776 H       1  <0>1        0.0381
     57 H25         9.8583   14.6166   19.9357 H       1  <0>1        0.0381
     58 O4         11.4224   14.2139   22.1859 O.3     1  <0>1       -0.4806
     59 H          11.9060   14.8232   21.6635 H       1  <0>1        0.2951
@<TRIPOS>BOND
     1     1     2    1
     2     1    34    1
     3     1    35    1
     4     1    36    1
     5     2     3    1
     6     3     8   ar
     7     3     4   ar
     8     4     5   ar
     9     4    37    1
    10     5     6   ar
    11     5    38    1
    12     6     7   ar
    13     6    39    1
    14     7     8   ar
    15     7     9    1
    16     8    40    1
    17     9    14   ar
    18     9    10   ar
    19    10    11   ar
    20    10    41    1
    21    11    12   ar
    22    11    42    1
    23    12    18    1
    24    12    13   ar
    25    13    14   ar
    26    13    15    1
    27    14    43    1
    28    15    16   am
    29    15    44    1
    30    16    17    2
    31    16    18    1
    32    18    19    2
    33    19    20    1
    34    19    45    1
    35    20    24   ar
    36    20    21   ar
    37    21    22   ar
    38    21    30    1
    39    22    29    1
    40    22    23   ar
    41    23    24   ar
    42    23    26    1
    43    24    25    1
    44    26    27    1
    45    26    46    1
    46    26    47    1
    47    27    28    1
    48    27    48    1
    49    27    49    1
    50    28    29    1
    51    28    50    1
    52    28    51    1
    53    29    52    1
    54    29    53    1
    55    30    31    1
    56    30    54    1
    57    30    55    1
    58    31    32    1
    59    31    56    1
    60    31    57    1
    61    32    33    2
    62    32    58    1
    63    58    59    1
